/*---------------------------------------------------------------------------*\
| =========                 |                                                 |
| \\      /  F ield         | OpenFOAM: The Open Source CFD Toolbox           |
|  \\    /   O peration     | Version:  2512                                  |
|   \\  /    A nd           | Website:  www.openfoam.com                      |
|    \\/     M anipulation  |                                                 |
\*---------------------------------------------------------------------------*/
Build  : _87ed40d256-20251219 OPENFOAM=2512 version=v2512
Arch   : "LSB;label=32;scalar=64"
Exec   : icoFoam
Date   : May 31 2026
Time   : 00:20:39
Host   : Harishs-MacBook-Air.local
PID    : 21686
I/O    : uncollated
Case   : /Volumes/Storage/learnings/openform/openfoam_exercises/lesson1/cavity/cavity_high_re
nProcs : 1
trapFpe: Floating point exception trapping enabled (FOAM_SIGFPE).
memory pool : not available
fileModificationChecking : Monitoring run-time modified files using timeStampMaster (fileModificationSkew 5, maxFileModificationPolls 20)
allowSystemOperations : Allowing user-supplied system call operations

// * * * * * * * * * * * * * * * * * * * * * * * * * * * * * * * * * * * * * //
Create time

Create mesh for time = 0


PISO: Operating solver in PISO mode

Reading transportProperties

Reading field p

Reading field U

Reading/calculating face flux field phi


Starting time loop

Time = 0.001

Courant Number mean: 0 max: 0
smoothSolver:  Solving for Ux, Initial residual = 1, Final residual = 6.0883e-06, No Iterations 12
smoothSolver:  Solving for Uy, Initial residual = 0, Final residual = 0, No Iterations 0
DICPCG:  Solving for p, Initial residual = 1, Final residual = 0.0465665, No Iterations 121
time step continuity errors : sum local = 8.33849e-06, global = -9.0659e-21, cumulative = -9.0659e-21
DICPCG:  Solving for p, Initial residual = 0.464843, Final residual = 9.7268e-07, No Iterations 173
time step continuity errors : sum local = 3.23621e-10, global = 1.44067e-20, cumulative = 5.34081e-21
ExecutionTime = 0.06 s  ClockTime = 0 s

Time = 0.002

Courant Number mean: 0.0204004 max: 0.541654
smoothSolver:  Solving for Ux, Initial residual = 0.216931, Final residual = 5.63904e-06, No Iterations 12
smoothSolver:  Solving for Uy, Initial residual = 0.31392, Final residual = 6.46645e-06, No Iterations 13
DICPCG:  Solving for p, Initial residual = 0.317067, Final residual = 0.0125527, No Iterations 119
time step continuity errors : sum local = 3.85735e-06, global = 7.54802e-21, cumulative = 1.28888e-20
DICPCG:  Solving for p, Initial residual = 0.224572, Final residual = 8.92657e-07, No Iterations 170
time step continuity errors : sum local = 2.9081e-10, global = -1.49139e-20, cumulative = -2.02507e-21
ExecutionTime = 0.1 s  ClockTime = 0 s

Time = 0.003

Courant Number mean: 0.0322777 max: 0.721685
smoothSolver:  Solving for Ux, Initial residual = 0.0982587, Final residual = 6.54274e-06, No Iterations 11
smoothSolver:  Solving for Uy, Initial residual = 0.144083, Final residual = 7.05953e-06, No Iterations 12
DICPCG:  Solving for p, Initial residual = 0.128799, Final residual = 0.00515258, No Iterations 118
time step continuity errors : sum local = 1.53249e-06, global = -5.28382e-20, cumulative = -5.48633e-20
DICPCG:  Solving for p, Initial residual = 0.0944164, Final residual = 8.98182e-07, No Iterations 166
time step continuity errors : sum local = 2.73288e-10, global = -2.36128e-20, cumulative = -7.84761e-20
ExecutionTime = 0.15 s  ClockTime = 0 s

Time = 0.004

Courant Number mean: 0.0404984 max: 0.793202
smoothSolver:  Solving for Ux, Initial residual = 0.0608702, Final residual = 4.47593e-06, No Iterations 11
smoothSolver:  Solving for Uy, Initial residual = 0.0889463, Final residual = 4.46622e-06, No Iterations 12
DICPCG:  Solving for p, Initial residual = 0.0717975, Final residual = 0.00296171, No Iterations 118
time step continuity errors : sum local = 8.91588e-07, global = -1.84896e-20, cumulative = -9.69656e-20
DICPCG:  Solving for p, Initial residual = 0.0533154, Final residual = 7.34624e-07, No Iterations 164
time step continuity errors : sum local = 2.23878e-10, global = -4.34428e-21, cumulative = -1.0131e-19
ExecutionTime = 0.19 s  ClockTime = 0 s

Time = 0.005

Courant Number mean: 0.0469348 max: 0.828813
smoothSolver:  Solving for Ux, Initial residual = 0.0441462, Final residual = 8.07397e-06, No Iterations 10
smoothSolver:  Solving for Uy, Initial residual = 0.0636407, Final residual = 7.4081e-06, No Iterations 11
DICPCG:  Solving for p, Initial residual = 0.0493439, Final residual = 0.00239181, No Iterations 59
time step continuity errors : sum local = 8.69345e-07, global = 1.14568e-19, cumulative = 1.32579e-20
DICPCG:  Solving for p, Initial residual = 0.0363869, Final residual = 8.82155e-07, No Iterations 161
time step continuity errors : sum local = 2.73102e-10, global = -7.41813e-20, cumulative = -6.09233e-20
ExecutionTime = 0.23 s  ClockTime = 0 s

Time = 0.006

Courant Number mean: 0.0523202 max: 0.850135
smoothSolver:  Solving for Ux, Initial residual = 0.0346531, Final residual = 6.65684e-06, No Iterations 10
smoothSolver:  Solving for Uy, Initial residual = 0.0500044, Final residual = 5.8943e-06, No Iterations 11
DICPCG:  Solving for p, Initial residual = 0.0410166, Final residual = 0.00180994, No Iterations 59
time step continuity errors : sum local = 6.8489e-07, global = 7.33399e-21, cumulative = -5.35893e-20
DICPCG:  Solving for p, Initial residual = 0.0300902, Final residual = 8.20754e-07, No Iterations 160
time step continuity errors : sum local = 2.56555e-10, global = -1.02024e-19, cumulative = -1.55613e-19
ExecutionTime = 0.27 s  ClockTime = 0 s

Time = 0.007

Courant Number mean: 0.0569917 max: 0.86462
smoothSolver:  Solving for Ux, Initial residual = 0.0289981, Final residual = 5.82441e-06, No Iterations 10
smoothSolver:  Solving for Uy, Initial residual = 0.0403205, Final residual = 4.79766e-06, No Iterations 11
DICPCG:  Solving for p, Initial residual = 0.0333769, Final residual = 0.00153814, No Iterations 117
time step continuity errors : sum local = 4.83653e-07, global = -1.21889e-19, cumulative = -2.77502e-19
DICPCG:  Solving for p, Initial residual = 0.0244969, Final residual = 9.91565e-07, No Iterations 152
time step continuity errors : sum local = 3.13026e-10, global = 4.86134e-20, cumulative = -2.28889e-19
ExecutionTime = 0.31 s  ClockTime = 0 s

Time = 0.008

Courant Number mean: 0.0611668 max: 0.875296
smoothSolver:  Solving for Ux, Initial residual = 0.0245632, Final residual = 5.08407e-06, No Iterations 10
smoothSolver:  Solving for Uy, Initial residual = 0.0343482, Final residual = 9.3709e-06, No Iterations 10
DICPCG:  Solving for p, Initial residual = 0.0273167, Final residual = 0.00118014, No Iterations 58
time step continuity errors : sum local = 4.17606e-07, global = -1.58149e-20, cumulative = -2.44704e-19
DICPCG:  Solving for p, Initial residual = 0.0200929, Final residual = 9.43741e-07, No Iterations 156
time step continuity errors : sum local = 2.99872e-10, global = 2.30443e-20, cumulative = -2.21659e-19
ExecutionTime = 0.35 s  ClockTime = 0 s

Time = 0.009

Courant Number mean: 0.0649212 max: 0.883593
smoothSolver:  Solving for Ux, Initial residual = 0.0213897, Final residual = 4.53668e-06, No Iterations 10
smoothSolver:  Solving for Uy, Initial residual = 0.029886, Final residual = 8.19807e-06, No Iterations 10
DICPCG:  Solving for p, Initial residual = 0.0243877, Final residual = 0.00112969, No Iterations 57
time step continuity errors : sum local = 3.84613e-07, global = 1.88785e-21, cumulative = -2.19771e-19
DICPCG:  Solving for p, Initial residual = 0.0182371, Final residual = 8.36934e-07, No Iterations 155
time step continuity errors : sum local = 2.67483e-10, global = 8.33055e-20, cumulative = -1.36466e-19
ExecutionTime = 0.38 s  ClockTime = 0 s

Time = 0.01

Courant Number mean: 0.068373 max: 0.890286
smoothSolver:  Solving for Ux, Initial residual = 0.0190424, Final residual = 9.53323e-06, No Iterations 9
smoothSolver:  Solving for Uy, Initial residual = 0.0261954, Final residual = 7.22088e-06, No Iterations 10
DICPCG:  Solving for p, Initial residual = 0.0215071, Final residual = 0.00104299, No Iterations 116
time step continuity errors : sum local = 3.33427e-07, global = -5.14809e-20, cumulative = -1.87947e-19
DICPCG:  Solving for p, Initial residual = 0.016058, Final residual = 9.24395e-07, No Iterations 147
time step continuity errors : sum local = 2.95482e-10, global = 1.18329e-20, cumulative = -1.76114e-19
ExecutionTime = 0.42 s  ClockTime = 0 s

Time = 0.011

Courant Number mean: 0.0715674 max: 0.895836
smoothSolver:  Solving for Ux, Initial residual = 0.0170712, Final residual = 8.69424e-06, No Iterations 9
smoothSolver:  Solving for Uy, Initial residual = 0.023471, Final residual = 6.49914e-06, No Iterations 10
DICPCG:  Solving for p, Initial residual = 0.0192355, Final residual = 0.000907104, No Iterations 57
time step continuity errors : sum local = 3.19334e-07, global = -6.71412e-21, cumulative = -1.82828e-19
DICPCG:  Solving for p, Initial residual = 0.0143698, Final residual = 9.79742e-07, No Iterations 151
time step continuity errors : sum local = 3.1507e-10, global = 4.89625e-21, cumulative = -1.77932e-19
ExecutionTime = 0.46 s  ClockTime = 0 s

Time = 0.012

Courant Number mean: 0.0745285 max: 0.900535
smoothSolver:  Solving for Ux, Initial residual = 0.0154561, Final residual = 7.98725e-06, No Iterations 9
smoothSolver:  Solving for Uy, Initial residual = 0.0212875, Final residual = 5.9112e-06, No Iterations 10
DICPCG:  Solving for p, Initial residual = 0.0178839, Final residual = 0.000791832, No Iterations 57
time step continuity errors : sum local = 2.72668e-07, global = -4.87771e-20, cumulative = -2.26709e-19
DICPCG:  Solving for p, Initial residual = 0.013622, Final residual = 9.13408e-07, No Iterations 152
time step continuity errors : sum local = 2.9461e-10, global = 4.88443e-20, cumulative = -1.77865e-19
ExecutionTime = 0.49 s  ClockTime = 0 s

Time = 0.013

Courant Number mean: 0.0773009 max: 0.90458
smoothSolver:  Solving for Ux, Initial residual = 0.0141906, Final residual = 7.43359e-06, No Iterations 9
smoothSolver:  Solving for Uy, Initial residual = 0.0193235, Final residual = 5.38065e-06, No Iterations 10
DICPCG:  Solving for p, Initial residual = 0.0161558, Final residual = 0.000807618, No Iterations 59
time step continuity errors : sum local = 3.27201e-07, global = 7.20864e-20, cumulative = -1.05778e-19
DICPCG:  Solving for p, Initial residual = 0.0121247, Final residual = 9.06662e-07, No Iterations 151
time step continuity errors : sum local = 2.93955e-10, global = -2.85456e-20, cumulative = -1.34324e-19
ExecutionTime = 0.53 s  ClockTime = 0 s

Time = 0.014

Courant Number mean: 0.079925 max: 0.908112
smoothSolver:  Solving for Ux, Initial residual = 0.0130001, Final residual = 6.87844e-06, No Iterations 9
smoothSolver:  Solving for Uy, Initial residual = 0.0179416, Final residual = 5.00324e-06, No Iterations 10
DICPCG:  Solving for p, Initial residual = 0.0159082, Final residual = 0.000779133, No Iterations 113
time step continuity errors : sum local = 2.53112e-07, global = 6.53005e-20, cumulative = -6.90234e-20
DICPCG:  Solving for p, Initial residual = 0.0119753, Final residual = 9.35178e-07, No Iterations 153
time step continuity errors : sum local = 3.04313e-10, global = 1.0402e-19, cumulative = 3.49967e-20
ExecutionTime = 0.57 s  ClockTime = 0 s

Time = 0.015

Courant Number mean: 0.0824028 max: 0.911229
smoothSolver:  Solving for Ux, Initial residual = 0.012095, Final residual = 6.47653e-06, No Iterations 9
smoothSolver:  Solving for Uy, Initial residual = 0.0164536, Final residual = 4.60287e-06, No Iterations 10
DICPCG:  Solving for p, Initial residual = 0.0140598, Final residual = 0.000633041, No Iterations 57
time step continuity errors : sum local = 2.29909e-07, global = 3.85261e-20, cumulative = 7.35227e-20
DICPCG:  Solving for p, Initial residual = 0.0106016, Final residual = 9.14356e-07, No Iterations 151
time step continuity errors : sum local = 2.98247e-10, global = 5.80531e-20, cumulative = 1.31576e-19
ExecutionTime = 0.6 s  ClockTime = 0 s

Time = 0.016

Courant Number mean: 0.0847464 max: 0.914006
smoothSolver:  Solving for Ux, Initial residual = 0.0112409, Final residual = 6.06807e-06, No Iterations 9
smoothSolver:  Solving for Uy, Initial residual = 0.0153561, Final residual = 9.7476e-06, No Iterations 9
DICPCG:  Solving for p, Initial residual = 0.0133387, Final residual = 0.000655127, No Iterations 56
time step continuity errors : sum local = 2.35813e-07, global = 1.71959e-20, cumulative = 1.48772e-19
DICPCG:  Solving for p, Initial residual = 0.0101634, Final residual = 9.38624e-07, No Iterations 145
time step continuity errors : sum local = 3.06958e-10, global = 3.26556e-20, cumulative = 1.81427e-19
ExecutionTime = 0.64 s  ClockTime = 0 s

Time = 0.017

Courant Number mean: 0.0869695 max: 0.916503
smoothSolver:  Solving for Ux, Initial residual = 0.0105569, Final residual = 5.75442e-06, No Iterations 9
smoothSolver:  Solving for Uy, Initial residual = 0.0142718, Final residual = 9.06932e-06, No Iterations 9
DICPCG:  Solving for p, Initial residual = 0.0125122, Final residual = 0.000530982, No Iterations 114
time step continuity errors : sum local = 1.73764e-07, global = 7.68624e-22, cumulative = 1.82196e-19
DICPCG:  Solving for p, Initial residual = 0.00951008, Final residual = 9.71368e-07, No Iterations 152
time step continuity errors : sum local = 3.17084e-10, global = -7.947e-20, cumulative = 1.02726e-19
ExecutionTime = 0.69 s  ClockTime = 0 s

Time = 0.018

Courant Number mean: 0.0891043 max: 0.918764
smoothSolver:  Solving for Ux, Initial residual = 0.00989181, Final residual = 5.43044e-06, No Iterations 9
smoothSolver:  Solving for Uy, Initial residual = 0.0134205, Final residual = 8.545e-06, No Iterations 9
DICPCG:  Solving for p, Initial residual = 0.0116122, Final residual = 0.000568394, No Iterations 56
time step continuity errors : sum local = 1.98794e-07, global = 6.4351e-20, cumulative = 1.67077e-19
DICPCG:  Solving for p, Initial residual = 0.00885717, Final residual = 9.16628e-07, No Iterations 152
time step continuity errors : sum local = 3.00683e-10, global = 1.8289e-20, cumulative = 1.85366e-19
ExecutionTime = 0.72 s  ClockTime = 0 s

Time = 0.019

Courant Number mean: 0.0911489 max: 0.92082
smoothSolver:  Solving for Ux, Initial residual = 0.00930722, Final residual = 5.14094e-06, No Iterations 9
smoothSolver:  Solving for Uy, Initial residual = 0.0126671, Final residual = 8.0718e-06, No Iterations 9
DICPCG:  Solving for p, Initial residual = 0.011207, Final residual = 0.000516545, No Iterations 56
time step continuity errors : sum local = 1.76084e-07, global = -7.52262e-20, cumulative = 1.1014e-19
DICPCG:  Solving for p, Initial residual = 0.00868698, Final residual = 9.87823e-07, No Iterations 150
time step continuity errors : sum local = 3.25545e-10, global = 2.38946e-20, cumulative = 1.34034e-19
ExecutionTime = 0.76 s  ClockTime = 0 s

Time = 0.02

Courant Number mean: 0.0931066 max: 0.922706
smoothSolver:  Solving for Ux, Initial residual = 0.00880984, Final residual = 4.90061e-06, No Iterations 9
smoothSolver:  Solving for Uy, Initial residual = 0.0119385, Final residual = 7.61339e-06, No Iterations 9
DICPCG:  Solving for p, Initial residual = 0.0105023, Final residual = 0.000466626, No Iterations 58
time step continuity errors : sum local = 1.82769e-07, global = 1.03052e-19, cumulative = 2.37086e-19
DICPCG:  Solving for p, Initial residual = 0.00799807, Final residual = 8.77762e-07, No Iterations 152
time step continuity errors : sum local = 2.88866e-10, global = -9.05129e-20, cumulative = 1.46573e-19
ExecutionTime = 0.8 s  ClockTime = 0 s

Time = 0.021

Courant Number mean: 0.0949802 max: 0.924442
smoothSolver:  Solving for Ux, Initial residual = 0.00832518, Final residual = 4.65261e-06, No Iterations 9
smoothSolver:  Solving for Uy, Initial residual = 0.0113803, Final residual = 7.26004e-06, No Iterations 9
DICPCG:  Solving for p, Initial residual = 0.0103662, Final residual = 0.000507135, No Iterations 59
time step continuity errors : sum local = 2.07316e-07, global = 6.99765e-20, cumulative = 2.1655e-19
DICPCG:  Solving for p, Initial residual = 0.00786715, Final residual = 9.21525e-07, No Iterations 145
time step continuity errors : sum local = 3.03574e-10, global = 7.37603e-20, cumulative = 2.9031e-19
ExecutionTime = 0.83 s  ClockTime = 1 s

Time = 0.022

Courant Number mean: 0.0967794 max: 0.926044
smoothSolver:  Solving for Ux, Initial residual = 0.00797492, Final residual = 4.48628e-06, No Iterations 9
smoothSolver:  Solving for Uy, Initial residual = 0.0107174, Final residual = 6.83559e-06, No Iterations 9
DICPCG:  Solving for p, Initial residual = 0.00991797, Final residual = 0.000418331, No Iterations 112
time step continuity errors : sum local = 1.383e-07, global = -4.73041e-20, cumulative = 2.43006e-19
DICPCG:  Solving for p, Initial residual = 0.00760677, Final residual = 8.41353e-07, No Iterations 152
time step continuity errors : sum local = 2.77422e-10, global = -1.42269e-19, cumulative = 1.00737e-19
ExecutionTime = 0.88 s  ClockTime = 1 s

Time = 0.023

Courant Number mean: 0.0985229 max: 0.927534
smoothSolver:  Solving for Ux, Initial residual = 0.00754829, Final residual = 9.76718e-06, No Iterations 8
smoothSolver:  Solving for Uy, Initial residual = 0.0102517, Final residual = 6.55302e-06, No Iterations 9
DICPCG:  Solving for p, Initial residual = 0.00910279, Final residual = 0.00043637, No Iterations 56
time step continuity errors : sum local = 1.51207e-07, global = -1.74364e-19, cumulative = -7.36268e-20
DICPCG:  Solving for p, Initial residual = 0.00700741, Final residual = 9.54239e-07, No Iterations 146
time step continuity errors : sum local = 3.16201e-10, global = 2.07689e-20, cumulative = -5.28579e-20
ExecutionTime = 0.91 s  ClockTime = 1 s

Time = 0.024

Courant Number mean: 0.100207 max: 0.928921
smoothSolver:  Solving for Ux, Initial residual = 0.00719335, Final residual = 9.34394e-06, No Iterations 8
smoothSolver:  Solving for Uy, Initial residual = 0.00980097, Final residual = 6.2678e-06, No Iterations 9
DICPCG:  Solving for p, Initial residual = 0.00890298, Final residual = 0.000413957, No Iterations 56
time step continuity errors : sum local = 1.38915e-07, global = -1.51166e-20, cumulative = -6.79745e-20
DICPCG:  Solving for p, Initial residual = 0.00696742, Final residual = 9.32192e-07, No Iterations 144
time step continuity errors : sum local = 3.08511e-10, global = 9.41681e-20, cumulative = 2.61936e-20
ExecutionTime = 0.94 s  ClockTime = 1 s

Time = 0.025

Courant Number mean: 0.101835 max: 0.930216
smoothSolver:  Solving for Ux, Initial residual = 0.00688209, Final residual = 8.97767e-06, No Iterations 8
smoothSolver:  Solving for Uy, Initial residual = 0.00936292, Final residual = 5.98944e-06, No Iterations 9
DICPCG:  Solving for p, Initial residual = 0.008461, Final residual = 0.000416984, No Iterations 56
time step continuity errors : sum local = 1.5317e-07, global = 8.43196e-20, cumulative = 1.10513e-19
DICPCG:  Solving for p, Initial residual = 0.0066748, Final residual = 9.2285e-07, No Iterations 144
time step continuity errors : sum local = 3.06622e-10, global = 7.6806e-20, cumulative = 1.87319e-19
ExecutionTime = 0.98 s  ClockTime = 1 s

Time = 0.026

Courant Number mean: 0.103408 max: 0.931431
smoothSolver:  Solving for Ux, Initial residual = 0.00657853, Final residual = 8.60842e-06, No Iterations 8
smoothSolver:  Solving for Uy, Initial residual = 0.009002, Final residual = 5.75986e-06, No Iterations 9
DICPCG:  Solving for p, Initial residual = 0.00836933, Final residual = 0.000384027, No Iterations 57
time step continuity errors : sum local = 1.45451e-07, global = -7.64509e-21, cumulative = 1.79674e-19
DICPCG:  Solving for p, Initial residual = 0.00644546, Final residual = 9.65442e-07, No Iterations 148
time step continuity errors : sum local = 3.20658e-10, global = -7.11369e-20, cumulative = 1.08537e-19
ExecutionTime = 1.01 s  ClockTime = 1 s

Time = 0.027

Courant Number mean: 0.104928 max: 0.932573
smoothSolver:  Solving for Ux, Initial residual = 0.00633489, Final residual = 8.32419e-06, No Iterations 8
smoothSolver:  Solving for Uy, Initial residual = 0.00859958, Final residual = 5.50123e-06, No Iterations 9
DICPCG:  Solving for p, Initial residual = 0.00799859, Final residual = 0.000290153, No Iterations 111
time step continuity errors : sum local = 9.63968e-08, global = -6.78711e-20, cumulative = 4.0666e-20
DICPCG:  Solving for p, Initial residual = 0.00608585, Final residual = 9.2575e-07, No Iterations 149
time step continuity errors : sum local = 3.08087e-10, global = -7.33964e-20, cumulative = -3.27304e-20
ExecutionTime = 1.05 s  ClockTime = 1 s

Time = 0.028

Courant Number mean: 0.106398 max: 0.933649
smoothSolver:  Solving for Ux, Initial residual = 0.00606856, Final residual = 7.99782e-06, No Iterations 8
smoothSolver:  Solving for Uy, Initial residual = 0.00828648, Final residual = 5.30707e-06, No Iterations 9
DICPCG:  Solving for p, Initial residual = 0.00746411, Final residual = 0.000362255, No Iterations 56
time step continuity errors : sum local = 1.27226e-07, global = 1.11788e-20, cumulative = -2.15516e-20
DICPCG:  Solving for p, Initial residual = 0.00577235, Final residual = 9.4908e-07, No Iterations 149
time step continuity errors : sum local = 3.15885e-10, global = 8.30185e-20, cumulative = 6.14669e-20
ExecutionTime = 1.09 s  ClockTime = 1 s

Time = 0.029

Courant Number mean: 0.107829 max: 0.934664
smoothSolver:  Solving for Ux, Initial residual = 0.00583017, Final residual = 7.70443e-06, No Iterations 8
smoothSolver:  Solving for Uy, Initial residual = 0.00798993, Final residual = 5.11806e-06, No Iterations 9
DICPCG:  Solving for p, Initial residual = 0.00748838, Final residual = 0.000351427, No Iterations 56
time step continuity errors : sum local = 1.21544e-07, global = -5.42763e-20, cumulative = 7.19055e-21
DICPCG:  Solving for p, Initial residual = 0.00586685, Final residual = 8.61363e-07, No Iterations 149
time step continuity errors : sum local = 2.86956e-10, global = 2.48168e-20, cumulative = 3.20073e-20
ExecutionTime = 1.12 s  ClockTime = 1 s

Time = 0.03

Courant Number mean: 0.109225 max: 0.935628
smoothSolver:  Solving for Ux, Initial residual = 0.00562128, Final residual = 7.45338e-06, No Iterations 8
smoothSolver:  Solving for Uy, Initial residual = 0.0076901, Final residual = 4.92576e-06, No Iterations 9
DICPCG:  Solving for p, Initial residual = 0.00716954, Final residual = 0.000331641, No Iterations 57
time step continuity errors : sum local = 1.27402e-07, global = -3.24462e-21, cumulative = 2.87627e-20
DICPCG:  Solving for p, Initial residual = 0.00560483, Final residual = 8.63713e-07, No Iterations 149
time step continuity errors : sum local = 2.88066e-10, global = -1.18175e-20, cumulative = 1.69452e-20
ExecutionTime = 1.15 s  ClockTime = 1 s

Time = 0.031

Courant Number mean: 0.110583 max: 0.936542
smoothSolver:  Solving for Ux, Initial residual = 0.00540641, Final residual = 7.18328e-06, No Iterations 8
smoothSolver:  Solving for Uy, Initial residual = 0.00745529, Final residual = 4.77535e-06, No Iterations 9
DICPCG:  Solving for p, Initial residual = 0.00716231, Final residual = 0.000347023, No Iterations 58
time step continuity errors : sum local = 1.39693e-07, global = -2.16331e-20, cumulative = -4.68789e-21
DICPCG:  Solving for p, Initial residual = 0.00552277, Final residual = 8.5873e-07, No Iterations 149
time step continuity errors : sum local = 2.86602e-10, global = -8.22679e-20, cumulative = -8.69558e-20
ExecutionTime = 1.19 s  ClockTime = 1 s

Time = 0.032

Courant Number mean: 0.111904 max: 0.937408
smoothSolver:  Solving for Ux, Initial residual = 0.00525113, Final residual = 6.99868e-06, No Iterations 8
smoothSolver:  Solving for Uy, Initial residual = 0.0071582, Final residual = 4.58203e-06, No Iterations 9
DICPCG:  Solving for p, Initial residual = 0.00694193, Final residual = 0.000255636, No Iterations 111
time step continuity errors : sum local = 8.5519e-08, global = -9.09101e-20, cumulative = -1.77866e-19
DICPCG:  Solving for p, Initial residual = 0.00528501, Final residual = 8.52845e-07, No Iterations 148
time step continuity errors : sum local = 2.85334e-10, global = -6.77813e-20, cumulative = -2.45647e-19
ExecutionTime = 1.23 s  ClockTime = 1 s

Time = 0.033

Courant Number mean: 0.113188 max: 0.938234
smoothSolver:  Solving for Ux, Initial residual = 0.00505013, Final residual = 6.74586e-06, No Iterations 8
smoothSolver:  Solving for Uy, Initial residual = 0.00694893, Final residual = 4.45407e-06, No Iterations 9
DICPCG:  Solving for p, Initial residual = 0.00640267, Final residual = 0.000309404, No Iterations 56
time step continuity errors : sum local = 1.08052e-07, global = 9.80633e-20, cumulative = -1.47584e-19
DICPCG:  Solving for p, Initial residual = 0.00497127, Final residual = 8.78683e-07, No Iterations 149
time step continuity errors : sum local = 2.93934e-10, global = -1.34422e-21, cumulative = -1.48928e-19
ExecutionTime = 1.27 s  ClockTime = 1 s

Time = 0.034

Courant Number mean: 0.114437 max: 0.939023
smoothSolver:  Solving for Ux, Initial residual = 0.00487876, Final residual = 6.53142e-06, No Iterations 8
smoothSolver:  Solving for Uy, Initial residual = 0.00673583, Final residual = 9.77361e-06, No Iterations 8
DICPCG:  Solving for p, Initial residual = 0.0064479, Final residual = 0.000298743, No Iterations 56
time step continuity errors : sum local = 1.02502e-07, global = -5.16344e-20, cumulative = -2.00563e-19
DICPCG:  Solving for p, Initial residual = 0.00506598, Final residual = 8.24468e-07, No Iterations 149
time step continuity errors : sum local = 2.76256e-10, global = 1.76117e-19, cumulative = -2.44457e-20
ExecutionTime = 1.3 s  ClockTime = 1 s

Time = 0.035

Courant Number mean: 0.115653 max: 0.939776
smoothSolver:  Solving for Ux, Initial residual = 0.004726, Final residual = 6.34339e-06, No Iterations 8
smoothSolver:  Solving for Uy, Initial residual = 0.0065227, Final residual = 9.46302e-06, No Iterations 8
DICPCG:  Solving for p, Initial residual = 0.0062112, Final residual = 0.000309522, No Iterations 56
time step continuity errors : sum local = 1.14635e-07, global = 1.14934e-19, cumulative = 9.04884e-20
DICPCG:  Solving for p, Initial residual = 0.0049149, Final residual = 8.04244e-07, No Iterations 149
time step continuity errors : sum local = 2.69712e-10, global = -7.9166e-21, cumulative = 8.25718e-20
ExecutionTime = 1.33 s  ClockTime = 1 s

Time = 0.036

Courant Number mean: 0.116838 max: 0.940495
smoothSolver:  Solving for Ux, Initial residual = 0.0045716, Final residual = 6.14525e-06, No Iterations 8
smoothSolver:  Solving for Uy, Initial residual = 0.00634784, Final residual = 9.20929e-06, No Iterations 8
DICPCG:  Solving for p, Initial residual = 0.00619952, Final residual = 0.00028494, No Iterations 57
time step continuity errors : sum local = 1.10383e-07, global = -1.80355e-19, cumulative = -9.77828e-20
DICPCG:  Solving for p, Initial residual = 0.00480217, Final residual = 7.91121e-07, No Iterations 149
time step continuity errors : sum local = 2.65554e-10, global = -2.10418e-19, cumulative = -3.08201e-19
ExecutionTime = 1.37 s  ClockTime = 1 s

Time = 0.037

Courant Number mean: 0.118001 max: 0.941182
smoothSolver:  Solving for Ux, Initial residual = 0.00445199, Final residual = 5.99896e-06, No Iterations 8
smoothSolver:  Solving for Uy, Initial residual = 0.00613685, Final residual = 8.89809e-06, No Iterations 8
DICPCG:  Solving for p, Initial residual = 0.00601202, Final residual = 0.00027369, No Iterations 111
time step continuity errors : sum local = 9.18629e-08, global = 1.10788e-19, cumulative = -1.97413e-19
DICPCG:  Solving for p, Initial residual = 0.00459556, Final residual = 9.72424e-07, No Iterations 147
time step continuity errors : sum local = 3.26981e-10, global = 3.46703e-20, cumulative = -1.62743e-19
ExecutionTime = 1.41 s  ClockTime = 1 s

Time = 0.038

Courant Number mean: 0.119139 max: 0.941844
smoothSolver:  Solving for Ux, Initial residual = 0.00430707, Final residual = 5.81416e-06, No Iterations 8
smoothSolver:  Solving for Uy, Initial residual = 0.00597824, Final residual = 8.67467e-06, No Iterations 8
DICPCG:  Solving for p, Initial residual = 0.00562743, Final residual = 0.000271356, No Iterations 56
time step continuity errors : sum local = 9.53632e-08, global = 6.85795e-20, cumulative = -9.41631e-20
DICPCG:  Solving for p, Initial residual = 0.00436662, Final residual = 7.85098e-07, No Iterations 149
time step continuity errors : sum local = 2.63908e-10, global = 1.17701e-20, cumulative = -8.2393e-20
ExecutionTime = 1.44 s  ClockTime = 1 s

Time = 0.039

Courant Number mean: 0.120252 max: 0.942479
smoothSolver:  Solving for Ux, Initial residual = 0.00417852, Final residual = 5.65003e-06, No Iterations 8
smoothSolver:  Solving for Uy, Initial residual = 0.00581924, Final residual = 8.44446e-06, No Iterations 8
DICPCG:  Solving for p, Initial residual = 0.00569059, Final residual = 0.000269646, No Iterations 56
time step continuity errors : sum local = 9.37988e-08, global = 1.29127e-19, cumulative = 4.67342e-20
DICPCG:  Solving for p, Initial residual = 0.00448155, Final residual = 9.68783e-07, No Iterations 148
time step continuity errors : sum local = 3.25837e-10, global = 6.73642e-21, cumulative = 5.34707e-20
ExecutionTime = 1.48 s  ClockTime = 1 s

Time = 0.04

Courant Number mean: 0.12134 max: 0.943089
smoothSolver:  Solving for Ux, Initial residual = 0.00406384, Final residual = 5.50689e-06, No Iterations 8
smoothSolver:  Solving for Uy, Initial residual = 0.00565694, Final residual = 8.2068e-06, No Iterations 8
DICPCG:  Solving for p, Initial residual = 0.00550944, Final residual = 0.000245885, No Iterations 57
time step continuity errors : sum local = 9.36204e-08, global = -8.74479e-21, cumulative = 4.47259e-20
DICPCG:  Solving for p, Initial residual = 0.00432043, Final residual = 9.74648e-07, No Iterations 148
time step continuity errors : sum local = 3.27972e-10, global = 8.48835e-20, cumulative = 1.29609e-19
ExecutionTime = 1.52 s  ClockTime = 1 s

Time = 0.041

Courant Number mean: 0.122403 max: 0.943675
smoothSolver:  Solving for Ux, Initial residual = 0.00394493, Final residual = 5.35151e-06, No Iterations 8
smoothSolver:  Solving for Uy, Initial residual = 0.00552717, Final residual = 8.01799e-06, No Iterations 8
DICPCG:  Solving for p, Initial residual = 0.00551567, Final residual = 0.000273546, No Iterations 57
time step continuity errors : sum local = 1.07803e-07, global = -8.4642e-20, cumulative = 4.49673e-20
DICPCG:  Solving for p, Initial residual = 0.00431229, Final residual = 9.52351e-07, No Iterations 148
time step continuity errors : sum local = 3.20808e-10, global = -7.29825e-22, cumulative = 4.42375e-20
ExecutionTime = 1.55 s  ClockTime = 1 s

Time = 0.042

Courant Number mean: 0.123443 max: 0.944238
smoothSolver:  Solving for Ux, Initial residual = 0.00385723, Final residual = 5.24349e-06, No Iterations 8
smoothSolver:  Solving for Uy, Initial residual = 0.00536042, Final residual = 7.77061e-06, No Iterations 8
DICPCG:  Solving for p, Initial residual = 0.00539751, Final residual = 0.000266419, No Iterations 112
time step continuity errors : sum local = 8.9797e-08, global = 7.26748e-20, cumulative = 1.16912e-19
DICPCG:  Solving for p, Initial residual = 0.00415145, Final residual = 8.56075e-07, No Iterations 148
time step continuity errors : sum local = 2.88595e-10, global = -6.74565e-20, cumulative = 4.94558e-20
ExecutionTime = 1.59 s  ClockTime = 1 s

Time = 0.043

Courant Number mean: 0.12446 max: 0.944782
smoothSolver:  Solving for Ux, Initial residual = 0.00374188, Final residual = 5.09345e-06, No Iterations 8
smoothSolver:  Solving for Uy, Initial residual = 0.0052407, Final residual = 7.60315e-06, No Iterations 8
DICPCG:  Solving for p, Initial residual = 0.00506412, Final residual = 0.000241343, No Iterations 56
time step continuity errors : sum local = 8.46883e-08, global = 1.90634e-20, cumulative = 6.85192e-20
DICPCG:  Solving for p, Initial residual = 0.00393493, Final residual = 9.05751e-07, No Iterations 148
time step continuity errors : sum local = 3.054e-10, global = 1.24878e-19, cumulative = 1.93397e-19
ExecutionTime = 1.63 s  ClockTime = 1 s

Time = 0.044

Courant Number mean: 0.125454 max: 0.945308
smoothSolver:  Solving for Ux, Initial residual = 0.00364197, Final residual = 4.96425e-06, No Iterations 8
smoothSolver:  Solving for Uy, Initial residual = 0.00511669, Final residual = 7.42361e-06, No Iterations 8
DICPCG:  Solving for p, Initial residual = 0.00509428, Final residual = 0.00024106, No Iterations 56
time step continuity errors : sum local = 8.37826e-08, global = 1.40939e-19, cumulative = 3.34336e-19
DICPCG:  Solving for p, Initial residual = 0.00402339, Final residual = 9.00894e-07, No Iterations 148
time step continuity errors : sum local = 3.04079e-10, global = -4.47108e-20, cumulative = 2.89625e-19
ExecutionTime = 1.66 s  ClockTime = 1 s

Time = 0.045

Courant Number mean: 0.126428 max: 0.945815
smoothSolver:  Solving for Ux, Initial residual = 0.00355227, Final residual = 4.85092e-06, No Iterations 8
smoothSolver:  Solving for Uy, Initial residual = 0.00499015, Final residual = 7.23815e-06, No Iterations 8
DICPCG:  Solving for p, Initial residual = 0.00494758, Final residual = 0.00021707, No Iterations 57
time step continuity errors : sum local = 8.18806e-08, global = 4.2035e-20, cumulative = 3.3166e-19
DICPCG:  Solving for p, Initial residual = 0.00388762, Final residual = 9.05344e-07, No Iterations 148
time step continuity errors : sum local = 3.05696e-10, global = -6.80672e-20, cumulative = 2.63593e-19
ExecutionTime = 1.7 s  ClockTime = 1 s

Time = 0.046

Courant Number mean: 0.127387 max: 0.946305
smoothSolver:  Solving for Ux, Initial residual = 0.00345943, Final residual = 4.72833e-06, No Iterations 8
smoothSolver:  Solving for Uy, Initial residual = 0.0048869, Final residual = 7.08798e-06, No Iterations 8
DICPCG:  Solving for p, Initial residual = 0.00494538, Final residual = 0.000235175, No Iterations 57
time step continuity errors : sum local = 9.17129e-08, global = -5.51525e-20, cumulative = 2.08441e-19
DICPCG:  Solving for p, Initial residual = 0.00387514, Final residual = 8.7176e-07, No Iterations 148
time step continuity errors : sum local = 2.94639e-10, global = -6.98167e-20, cumulative = 1.38624e-19
ExecutionTime = 1.73 s  ClockTime = 2 s

Time = 0.047

Courant Number mean: 0.128329 max: 0.946777
smoothSolver:  Solving for Ux, Initial residual = 0.00338928, Final residual = 4.64055e-06, No Iterations 8
smoothSolver:  Solving for Uy, Initial residual = 0.00475644, Final residual = 6.89406e-06, No Iterations 8
DICPCG:  Solving for p, Initial residual = 0.00484838, Final residual = 0.000220937, No Iterations 114
time step continuity errors : sum local = 7.46419e-08, global = 1.81239e-20, cumulative = 1.56748e-19
DICPCG:  Solving for p, Initial residual = 0.00373732, Final residual = 8.21473e-07, No Iterations 148
time step continuity errors : sum local = 2.77741e-10, global = 1.24868e-19, cumulative = 2.81616e-19
ExecutionTime = 1.77 s  ClockTime = 2 s

Time = 0.048

Courant Number mean: 0.129254 max: 0.947235
smoothSolver:  Solving for Ux, Initial residual = 0.00329888, Final residual = 4.52187e-06, No Iterations 8
smoothSolver:  Solving for Uy, Initial residual = 0.00465971, Final residual = 6.75809e-06, No Iterations 8
DICPCG:  Solving for p, Initial residual = 0.00458997, Final residual = 0.000223192, No Iterations 56
time step continuity errors : sum local = 7.86572e-08, global = 1.45855e-20, cumulative = 2.96201e-19
DICPCG:  Solving for p, Initial residual = 0.00357885, Final residual = 8.55902e-07, No Iterations 148
time step continuity errors : sum local = 2.89471e-10, global = -7.02757e-20, cumulative = 2.25926e-19
ExecutionTime = 1.81 s  ClockTime = 2 s

Time = 0.049

Courant Number mean: 0.130162 max: 0.947677
smoothSolver:  Solving for Ux, Initial residual = 0.0032186, Final residual = 4.41631e-06, No Iterations 8
smoothSolver:  Solving for Uy, Initial residual = 0.00456164, Final residual = 6.61586e-06, No Iterations 8
DICPCG:  Solving for p, Initial residual = 0.00462331, Final residual = 0.00021481, No Iterations 56
time step continuity errors : sum local = 7.55476e-08, global = 8.08011e-20, cumulative = 3.06727e-19
DICPCG:  Solving for p, Initial residual = 0.00365741, Final residual = 8.46429e-07, No Iterations 148
time step continuity errors : sum local = 2.86511e-10, global = 5.80057e-20, cumulative = 3.64733e-19
ExecutionTime = 1.84 s  ClockTime = 2 s

Time = 0.05

Courant Number mean: 0.131053 max: 0.948105
smoothSolver:  Solving for Ux, Initial residual = 0.00314737, Final residual = 9.84643e-06, No Iterations 7
smoothSolver:  Solving for Uy, Initial residual = 0.00445879, Final residual = 6.46474e-06, No Iterations 8
DICPCG:  Solving for p, Initial residual = 0.00450015, Final residual = 0.000201568, No Iterations 57
time step continuity errors : sum local = 7.67179e-08, global = -1.91922e-19, cumulative = 1.7281e-19
DICPCG:  Solving for p, Initial residual = 0.0035449, Final residual = 8.38384e-07, No Iterations 148
time step continuity errors : sum local = 2.83932e-10, global = -6.01789e-20, cumulative = 1.12632e-19
ExecutionTime = 1.87 s  ClockTime = 2 s

Time = 0.051

Courant Number mean: 0.131927 max: 0.94852
smoothSolver:  Solving for Ux, Initial residual = 0.00307172, Final residual = 9.61564e-06, No Iterations 7
smoothSolver:  Solving for Uy, Initial residual = 0.00437702, Final residual = 6.34575e-06, No Iterations 8
DICPCG:  Solving for p, Initial residual = 0.0045128, Final residual = 0.000198037, No Iterations 58
time step continuity errors : sum local = 7.97205e-08, global = -1.35988e-19, cumulative = -2.33564e-20
DICPCG:  Solving for p, Initial residual = 0.00351717, Final residual = 7.99398e-07, No Iterations 148
time step continuity errors : sum local = 2.70918e-10, global = 3.01652e-21, cumulative = -2.03399e-20
ExecutionTime = 1.91 s  ClockTime = 2 s

Time = 0.052

Courant Number mean: 0.132785 max: 0.948923
smoothSolver:  Solving for Ux, Initial residual = 0.00301772, Final residual = 9.46055e-06, No Iterations 7
smoothSolver:  Solving for Uy, Initial residual = 0.00426767, Final residual = 6.18256e-06, No Iterations 8
DICPCG:  Solving for p, Initial residual = 0.00443387, Final residual = 0.000206281, No Iterations 114
time step continuity errors : sum local = 6.99308e-08, global = 3.569e-20, cumulative = 1.53501e-20
DICPCG:  Solving for p, Initial residual = 0.00344114, Final residual = 9.97275e-07, No Iterations 147
time step continuity errors : sum local = 3.38452e-10, global = 4.98245e-20, cumulative = 6.51746e-20
ExecutionTime = 1.95 s  ClockTime = 2 s

Time = 0.053

Courant Number mean: 0.133627 max: 0.949314
smoothSolver:  Solving for Ux, Initial residual = 0.00294212, Final residual = 9.2321e-06, No Iterations 7
smoothSolver:  Solving for Uy, Initial residual = 0.00419062, Final residual = 6.07515e-06, No Iterations 8
DICPCG:  Solving for p, Initial residual = 0.00420947, Final residual = 0.000200442, No Iterations 56
time step continuity errors : sum local = 7.03523e-08, global = -2.10747e-19, cumulative = -1.45572e-19
DICPCG:  Solving for p, Initial residual = 0.00329001, Final residual = 8.07487e-07, No Iterations 148
time step continuity errors : sum local = 2.73949e-10, global = 7.2229e-20, cumulative = -7.33431e-20
ExecutionTime = 1.98 s  ClockTime = 2 s

Time = 0.054

Courant Number mean: 0.134454 max: 0.949694
smoothSolver:  Solving for Ux, Initial residual = 0.00287678, Final residual = 9.03368e-06, No Iterations 7
smoothSolver:  Solving for Uy, Initial residual = 0.00410973, Final residual = 5.95778e-06, No Iterations 8
DICPCG:  Solving for p, Initial residual = 0.00422065, Final residual = 0.000192257, No Iterations 56
time step continuity errors : sum local = 6.73366e-08, global = -3.70507e-20, cumulative = -1.10394e-19
DICPCG:  Solving for p, Initial residual = 0.00334639, Final residual = 7.98196e-07, No Iterations 148
time step continuity errors : sum local = 2.70862e-10, global = -1.97781e-19, cumulative = -3.08175e-19
ExecutionTime = 2.02 s  ClockTime = 2 s

Time = 0.055

Courant Number mean: 0.135267 max: 0.950062
smoothSolver:  Solving for Ux, Initial residual = 0.00281853, Final residual = 8.85937e-06, No Iterations 7
smoothSolver:  Solving for Uy, Initial residual = 0.00402574, Final residual = 5.83449e-06, No Iterations 8
DICPCG:  Solving for p, Initial residual = 0.00411823, Final residual = 0.000202862, No Iterations 56
time step continuity errors : sum local = 7.53025e-08, global = 4.33869e-20, cumulative = -2.64788e-19
DICPCG:  Solving for p, Initial residual = 0.00328402, Final residual = 7.93369e-07, No Iterations 148
time step continuity errors : sum local = 2.69407e-10, global = -1.76296e-19, cumulative = -4.41084e-19
ExecutionTime = 2.05 s  ClockTime = 2 s

Time = 0.056

Courant Number mean: 0.136066 max: 0.95042
smoothSolver:  Solving for Ux, Initial residual = 0.00275661, Final residual = 8.66956e-06, No Iterations 7
smoothSolver:  Solving for Uy, Initial residual = 0.00395724, Final residual = 5.73515e-06, No Iterations 8
DICPCG:  Solving for p, Initial residual = 0.00413411, Final residual = 0.000194515, No Iterations 57
time step continuity errors : sum local = 7.58055e-08, global = -6.18638e-20, cumulative = -5.02948e-19
DICPCG:  Solving for p, Initial residual = 0.00323998, Final residual = 9.63587e-07, No Iterations 147
time step continuity errors : sum local = 3.27316e-10, global = -5.78524e-20, cumulative = -5.608e-19
ExecutionTime = 2.09 s  ClockTime = 2 s

Time = 0.057

Courant Number mean: 0.136855 max: 0.950767
smoothSolver:  Solving for Ux, Initial residual = 0.00271063, Final residual = 8.53657e-06, No Iterations 7
smoothSolver:  Solving for Uy, Initial residual = 0.00386838, Final residual = 5.60248e-06, No Iterations 8
DICPCG:  Solving for p, Initial residual = 0.00407149, Final residual = 0.000189391, No Iterations 114
time step continuity errors : sum local = 6.43594e-08, global = -2.60262e-19, cumulative = -8.21062e-19
DICPCG:  Solving for p, Initial residual = 0.00316096, Final residual = 9.76775e-07, No Iterations 147
time step continuity errors : sum local = 3.32168e-10, global = 1.37251e-19, cumulative = -6.8381e-19
ExecutionTime = 2.13 s  ClockTime = 2 s

Time = 0.058

Courant Number mean: 0.137632 max: 0.951105
smoothSolver:  Solving for Ux, Initial residual = 0.00264973, Final residual = 8.3517e-06, No Iterations 7
smoothSolver:  Solving for Uy, Initial residual = 0.00380298, Final residual = 5.51064e-06, No Iterations 8
DICPCG:  Solving for p, Initial residual = 0.0038907, Final residual = 0.000180262, No Iterations 56
time step continuity errors : sum local = 6.35e-08, global = 2.57426e-20, cumulative = -6.58068e-19
DICPCG:  Solving for p, Initial residual = 0.00304521, Final residual = 9.3929e-07, No Iterations 147
time step continuity errors : sum local = 3.19536e-10, global = 4.24032e-20, cumulative = -6.15665e-19
ExecutionTime = 2.16 s  ClockTime = 2 s

Time = 0.059

Courant Number mean: 0.138399 max: 0.951434
smoothSolver:  Solving for Ux, Initial residual = 0.00259538, Final residual = 8.18544e-06, No Iterations 7
smoothSolver:  Solving for Uy, Initial residual = 0.00373556, Final residual = 5.41283e-06, No Iterations 8
DICPCG:  Solving for p, Initial residual = 0.00389397, Final residual = 0.000172517, No Iterations 56
time step continuity errors : sum local = 6.08336e-08, global = -4.41086e-20, cumulative = -6.59773e-19
DICPCG:  Solving for p, Initial residual = 0.00308923, Final residual = 9.61059e-07, No Iterations 147
time step continuity errors : sum local = 3.26997e-10, global = 2.14637e-19, cumulative = -4.45136e-19
ExecutionTime = 2.19 s  ClockTime = 2 s

Time = 0.06

Courant Number mean: 0.139153 max: 0.951753
smoothSolver:  Solving for Ux, Initial residual = 0.00254724, Final residual = 8.04056e-06, No Iterations 7
smoothSolver:  Solving for Uy, Initial residual = 0.00366474, Final residual = 5.30876e-06, No Iterations 8
DICPCG:  Solving for p, Initial residual = 0.00380694, Final residual = 0.000184662, No Iterations 56
time step continuity errors : sum local = 6.90174e-08, global = -6.96646e-20, cumulative = -5.14801e-19
DICPCG:  Solving for p, Initial residual = 0.00303803, Final residual = 9.17265e-07, No Iterations 147
time step continuity errors : sum local = 3.12249e-10, global = 4.67542e-20, cumulative = -4.68046e-19
ExecutionTime = 2.24 s  ClockTime = 2 s

Time = 0.061

Courant Number mean: 0.139896 max: 0.952065
smoothSolver:  Solving for Ux, Initial residual = 0.00249526, Final residual = 7.87902e-06, No Iterations 7
smoothSolver:  Solving for Uy, Initial residual = 0.00360796, Final residual = 5.22637e-06, No Iterations 8
DICPCG:  Solving for p, Initial residual = 0.00383015, Final residual = 0.000181569, No Iterations 57
time step continuity errors : sum local = 7.13858e-08, global = -8.42944e-20, cumulative = -5.52341e-19
DICPCG:  Solving for p, Initial residual = 0.00300965, Final residual = 9.52539e-07, No Iterations 147
time step continuity errors : sum local = 3.24287e-10, global = -3.45515e-20, cumulative = -5.86892e-19
ExecutionTime = 2.27 s  ClockTime = 2 s

Time = 0.062

Courant Number mean: 0.140627 max: 0.952367
smoothSolver:  Solving for Ux, Initial residual = 0.00245774, Final residual = 7.76976e-06, No Iterations 7
smoothSolver:  Solving for Uy, Initial residual = 0.00353157, Final residual = 5.11219e-06, No Iterations 8
DICPCG:  Solving for p, Initial residual = 0.00378274, Final residual = 0.000170909, No Iterations 114
time step continuity errors : sum local = 5.82235e-08, global = 5.6857e-20, cumulative = -5.30035e-19
DICPCG:  Solving for p, Initial residual = 0.00294429, Final residual = 8.84483e-07, No Iterations 147
time step continuity errors : sum local = 3.01428e-10, global = -1.18462e-20, cumulative = -5.41881e-19
ExecutionTime = 2.31 s  ClockTime = 2 s

Time = 0.063

Courant Number mean: 0.141346 max: 0.952662
smoothSolver:  Solving for Ux, Initial residual = 0.00240552, Final residual = 7.61079e-06, No Iterations 7
smoothSolver:  Solving for Uy, Initial residual = 0.00347675, Final residual = 5.03566e-06, No Iterations 8
DICPCG:  Solving for p, Initial residual = 0.00361643, Final residual = 0.000162523, No Iterations 56
time step continuity errors : sum local = 5.73042e-08, global = 1.41525e-21, cumulative = -5.40466e-19
DICPCG:  Solving for p, Initial residual = 0.00283426, Final residual = 9.43445e-07, No Iterations 147
time step continuity errors : sum local = 3.21624e-10, global = 2.97575e-20, cumulative = -5.10709e-19
ExecutionTime = 2.35 s  ClockTime = 2 s

Time = 0.064

Courant Number mean: 0.142055 max: 0.95295
smoothSolver:  Solving for Ux, Initial residual = 0.00235969, Final residual = 7.46982e-06, No Iterations 7
smoothSolver:  Solving for Uy, Initial residual = 0.00341944, Final residual = 4.95261e-06, No Iterations 8
DICPCG:  Solving for p, Initial residual = 0.00361218, Final residual = 0.000176524, No Iterations 55
time step continuity errors : sum local = 6.21528e-08, global = 3.94152e-21, cumulative = -5.06767e-19
DICPCG:  Solving for p, Initial residual = 0.00286679, Final residual = 9.40122e-07, No Iterations 147
time step continuity errors : sum local = 3.20525e-10, global = -1.35074e-19, cumulative = -6.41841e-19
ExecutionTime = 2.38 s  ClockTime = 2 s

Time = 0.065

Courant Number mean: 0.142753 max: 0.95323
smoothSolver:  Solving for Ux, Initial residual = 0.00231898, Final residual = 7.34666e-06, No Iterations 7
smoothSolver:  Solving for Uy, Initial residual = 0.00335957, Final residual = 4.86465e-06, No Iterations 8
DICPCG:  Solving for p, Initial residual = 0.00356493, Final residual = 0.000162788, No Iterations 56
time step continuity errors : sum local = 6.08148e-08, global = -4.15128e-20, cumulative = -6.83354e-19
DICPCG:  Solving for p, Initial residual = 0.00281809, Final residual = 9.32685e-07, No Iterations 147
time step continuity errors : sum local = 3.18124e-10, global = -5.6716e-20, cumulative = -7.4007e-19
ExecutionTime = 2.41 s  ClockTime = 2 s

Time = 0.066

Courant Number mean: 0.143441 max: 0.953503
smoothSolver:  Solving for Ux, Initial residual = 0.00227545, Final residual = 7.21102e-06, No Iterations 7
smoothSolver:  Solving for Uy, Initial residual = 0.00331024, Final residual = 4.79332e-06, No Iterations 8
DICPCG:  Solving for p, Initial residual = 0.00356105, Final residual = 0.000176335, No Iterations 56
time step continuity errors : sum local = 6.8327e-08, global = 5.44008e-20, cumulative = -6.85669e-19
DICPCG:  Solving for p, Initial residual = 0.00282931, Final residual = 9.19595e-07, No Iterations 147
time step continuity errors : sum local = 3.13715e-10, global = 1.02644e-19, cumulative = -5.83025e-19
ExecutionTime = 2.45 s  ClockTime = 2 s

Time = 0.067

Courant Number mean: 0.144118 max: 0.953769
smoothSolver:  Solving for Ux, Initial residual = 0.00224334, Final residual = 7.11654e-06, No Iterations 7
smoothSolver:  Solving for Uy, Initial residual = 0.00324554, Final residual = 4.69662e-06, No Iterations 8
DICPCG:  Solving for p, Initial residual = 0.00352163, Final residual = 0.000153037, No Iterations 114
time step continuity errors : sum local = 5.22397e-08, global = 2.04818e-20, cumulative = -5.62543e-19
DICPCG:  Solving for p, Initial residual = 0.00274914, Final residual = 8.80196e-07, No Iterations 147
time step continuity errors : sum local = 3.00518e-10, global = 1.89128e-19, cumulative = -3.73415e-19
ExecutionTime = 2.49 s  ClockTime = 2 s

Time = 0.068

Courant Number mean: 0.144785 max: 0.954029
smoothSolver:  Solving for Ux, Initial residual = 0.00219951, Final residual = 6.98192e-06, No Iterations 7
smoothSolver:  Solving for Uy, Initial residual = 0.00319787, Final residual = 4.62993e-06, No Iterations 8
DICPCG:  Solving for p, Initial residual = 0.00337498, Final residual = 0.000161912, No Iterations 55
time step continuity errors : sum local = 5.69951e-08, global = -3.83836e-20, cumulative = -4.11799e-19
DICPCG:  Solving for p, Initial residual = 0.00265702, Final residual = 8.72963e-07, No Iterations 147
time step continuity errors : sum local = 2.98109e-10, global = -1.15805e-19, cumulative = -5.27604e-19
ExecutionTime = 2.53 s  ClockTime = 2 s

Time = 0.069

Courant Number mean: 0.145443 max: 0.954282
smoothSolver:  Solving for Ux, Initial residual = 0.00215996, Final residual = 6.85972e-06, No Iterations 7
smoothSolver:  Solving for Uy, Initial residual = 0.00314915, Final residual = 4.55925e-06, No Iterations 8
DICPCG:  Solving for p, Initial residual = 0.00339326, Final residual = 0.000160202, No Iterations 55
time step continuity errors : sum local = 5.6734e-08, global = 1.39281e-19, cumulative = -3.88323e-19
DICPCG:  Solving for p, Initial residual = 0.00270955, Final residual = 9.11808e-07, No Iterations 147
time step continuity errors : sum local = 3.11436e-10, global = 2.52342e-19, cumulative = -1.35981e-19
ExecutionTime = 2.56 s  ClockTime = 2 s

Time = 0.07

Courant Number mean: 0.146095 max: 0.95453
smoothSolver:  Solving for Ux, Initial residual = 0.00212564, Final residual = 6.75548e-06, No Iterations 7
smoothSolver:  Solving for Uy, Initial residual = 0.00309681, Final residual = 4.4823e-06, No Iterations 8
DICPCG:  Solving for p, Initial residual = 0.00332522, Final residual = 0.000148986, No Iterations 56
time step continuity errors : sum local = 5.60848e-08, global = -7.06766e-20, cumulative = -2.06657e-19
DICPCG:  Solving for p, Initial residual = 0.00263556, Final residual = 8.81837e-07, No Iterations 147
time step continuity errors : sum local = 3.0127e-10, global = -1.30354e-20, cumulative = -2.19693e-19
ExecutionTime = 2.59 s  ClockTime = 2 s

Time = 0.071

Courant Number mean: 0.146739 max: 0.954771
smoothSolver:  Solving for Ux, Initial residual = 0.0020882, Final residual = 6.6381e-06, No Iterations 7
smoothSolver:  Solving for Uy, Initial residual = 0.00305483, Final residual = 4.42157e-06, No Iterations 8
DICPCG:  Solving for p, Initial residual = 0.00333439, Final residual = 0.000164345, No Iterations 56
time step continuity errors : sum local = 6.42903e-08, global = 1.80818e-19, cumulative = -3.88742e-20
DICPCG:  Solving for p, Initial residual = 0.00265168, Final residual = 9.94879e-07, No Iterations 146
time step continuity errors : sum local = 3.39856e-10, global = -1.2014e-20, cumulative = -5.08883e-20
ExecutionTime = 2.63 s  ClockTime = 3 s

Time = 0.072

Courant Number mean: 0.147374 max: 0.955007
smoothSolver:  Solving for Ux, Initial residual = 0.00206161, Final residual = 6.55993e-06, No Iterations 7
smoothSolver:  Solving for Uy, Initial residual = 0.00299771, Final residual = 9.81654e-06, No Iterations 7
DICPCG:  Solving for p, Initial residual = 0.00328703, Final residual = 0.000141986, No Iterations 114
time step continuity errors : sum local = 4.85524e-08, global = 2.41883e-20, cumulative = -2.67e-20
DICPCG:  Solving for p, Initial residual = 0.00256304, Final residual = 9.45036e-07, No Iterations 146
time step continuity errors : sum local = 3.22979e-10, global = 8.1216e-20, cumulative = 5.45161e-20
ExecutionTime = 2.67 s  ClockTime = 3 s

Time = 0.073

Courant Number mean: 0.148001 max: 0.955237
smoothSolver:  Solving for Ux, Initial residual = 0.00202332, Final residual = 6.44183e-06, No Iterations 7
smoothSolver:  Solving for Uy, Initial residual = 0.00295682, Final residual = 9.6875e-06, No Iterations 7
DICPCG:  Solving for p, Initial residual = 0.00314643, Final residual = 0.000143196, No Iterations 55
time step continuity errors : sum local = 5.07072e-08, global = -1.66377e-20, cumulative = 3.78784e-20
DICPCG:  Solving for p, Initial residual = 0.00247046, Final residual = 9.86604e-07, No Iterations 146
time step continuity errors : sum local = 3.37352e-10, global = -2.32874e-20, cumulative = 1.45909e-20
ExecutionTime = 2.7 s  ClockTime = 3 s

Time = 0.074

Courant Number mean: 0.148619 max: 0.955462
smoothSolver:  Solving for Ux, Initial residual = 0.00198906, Final residual = 6.33532e-06, No Iterations 7
smoothSolver:  Solving for Uy, Initial residual = 0.00291475, Final residual = 9.54955e-06, No Iterations 7
DICPCG:  Solving for p, Initial residual = 0.00315821, Final residual = 0.000143516, No Iterations 55
time step continuity errors : sum local = 5.10829e-08, global = 1.71488e-20, cumulative = 3.17397e-20
DICPCG:  Solving for p, Initial residual = 0.00251671, Final residual = 9.79904e-07, No Iterations 146
time step continuity errors : sum local = 3.3514e-10, global = -3.00347e-20, cumulative = 1.70495e-21
ExecutionTime = 2.74 s  ClockTime = 3 s

Time = 0.075

Courant Number mean: 0.14923 max: 0.955681
smoothSolver:  Solving for Ux, Initial residual = 0.00195938, Final residual = 6.24468e-06, No Iterations 7
smoothSolver:  Solving for Uy, Initial residual = 0.00286879, Final residual = 9.39713e-06, No Iterations 7
DICPCG:  Solving for p, Initial residual = 0.00309806, Final residual = 0.000151519, No Iterations 55
time step continuity errors : sum local = 5.69646e-08, global = 4.58343e-20, cumulative = 4.75393e-20
DICPCG:  Solving for p, Initial residual = 0.00247986, Final residual = 9.73203e-07, No Iterations 145
time step continuity errors : sum local = 3.32914e-10, global = 6.34122e-20, cumulative = 1.10952e-19
ExecutionTime = 2.77 s  ClockTime = 3 s

Time = 0.076

Courant Number mean: 0.149833 max: 0.955896
smoothSolver:  Solving for Ux, Initial residual = 0.00192661, Final residual = 6.14096e-06, No Iterations 7
smoothSolver:  Solving for Uy, Initial residual = 0.00283318, Final residual = 9.28041e-06, No Iterations 7
DICPCG:  Solving for p, Initial residual = 0.00312446, Final residual = 0.000154344, No Iterations 56
time step continuity errors : sum local = 6.09613e-08, global = 9.55231e-20, cumulative = 2.06475e-19
DICPCG:  Solving for p, Initial residual = 0.00246755, Final residual = 9.66071e-07, No Iterations 145
time step continuity errors : sum local = 3.30598e-10, global = -9.92187e-21, cumulative = 1.96553e-19
ExecutionTime = 2.8 s  ClockTime = 3 s

Time = 0.077

Courant Number mean: 0.150428 max: 0.956106
smoothSolver:  Solving for Ux, Initial residual = 0.00190478, Final residual = 6.07689e-06, No Iterations 7
smoothSolver:  Solving for Uy, Initial residual = 0.00278161, Final residual = 9.10634e-06, No Iterations 7
DICPCG:  Solving for p, Initial residual = 0.00309927, Final residual = 0.000134238, No Iterations 114
time step continuity errors : sum local = 4.59817e-08, global = -6.0441e-21, cumulative = 1.90509e-19
DICPCG:  Solving for p, Initial residual = 0.00241748, Final residual = 9.18437e-07, No Iterations 146
time step continuity errors : sum local = 3.14392e-10, global = 2.25881e-19, cumulative = 4.16389e-19
ExecutionTime = 2.84 s  ClockTime = 3 s

Time = 0.078

Courant Number mean: 0.151015 max: 0.956312
smoothSolver:  Solving for Ux, Initial residual = 0.00187097, Final residual = 5.97239e-06, No Iterations 7
smoothSolver:  Solving for Uy, Initial residual = 0.00274604, Final residual = 8.99465e-06, No Iterations 7
DICPCG:  Solving for p, Initial residual = 0.00296232, Final residual = 0.00013226, No Iterations 55
time step continuity errors : sum local = 4.68749e-08, global = -1.09872e-19, cumulative = 3.06517e-19
DICPCG:  Solving for p, Initial residual = 0.0023252, Final residual = 9.58014e-07, No Iterations 145
time step continuity errors : sum local = 3.28025e-10, global = -7.05476e-20, cumulative = 2.3597e-19
ExecutionTime = 2.88 s  ClockTime = 3 s

Time = 0.079

Courant Number mean: 0.151595 max: 0.956513
smoothSolver:  Solving for Ux, Initial residual = 0.00184123, Final residual = 5.87969e-06, No Iterations 7
smoothSolver:  Solving for Uy, Initial residual = 0.00270908, Final residual = 8.87351e-06, No Iterations 7
DICPCG:  Solving for p, Initial residual = 0.00296748, Final residual = 0.000131917, No Iterations 55
time step continuity errors : sum local = 4.69856e-08, global = 1.51142e-19, cumulative = 3.87111e-19
DICPCG:  Solving for p, Initial residual = 0.00236559, Final residual = 9.25304e-07, No Iterations 145
time step continuity errors : sum local = 3.17073e-10, global = 8.52911e-20, cumulative = 4.72403e-19
ExecutionTime = 2.91 s  ClockTime = 3 s

Time = 0.08

Courant Number mean: 0.152167 max: 0.956709
smoothSolver:  Solving for Ux, Initial residual = 0.00181545, Final residual = 5.80103e-06, No Iterations 7
smoothSolver:  Solving for Uy, Initial residual = 0.00266855, Final residual = 8.73911e-06, No Iterations 7
DICPCG:  Solving for p, Initial residual = 0.0029137, Final residual = 0.000138392, No Iterations 55
time step continuity errors : sum local = 5.20502e-08, global = 7.32855e-21, cumulative = 4.79731e-19
DICPCG:  Solving for p, Initial residual = 0.0023321, Final residual = 9.79805e-07, No Iterations 144
time step continuity errors : sum local = 3.35717e-10, global = 2.45327e-20, cumulative = 5.04264e-19
ExecutionTime = 2.96 s  ClockTime = 3 s

Time = 0.081

Courant Number mean: 0.152732 max: 0.956902
smoothSolver:  Solving for Ux, Initial residual = 0.00178679, Final residual = 5.70981e-06, No Iterations 7
smoothSolver:  Solving for Uy, Initial residual = 0.00263707, Final residual = 8.63599e-06, No Iterations 7
DICPCG:  Solving for p, Initial residual = 0.00293696, Final residual = 0.000138195, No Iterations 56
time step continuity errors : sum local = 5.47063e-08, global = 1.37506e-19, cumulative = 6.4177e-19
DICPCG:  Solving for p, Initial residual = 0.00231938, Final residual = 9.01772e-07, No Iterations 144
time step continuity errors : sum local = 3.09254e-10, global = -1.53507e-19, cumulative = 4.88263e-19
ExecutionTime = 2.99 s  ClockTime = 3 s

Time = 0.082

Courant Number mean: 0.153289 max: 0.95709
smoothSolver:  Solving for Ux, Initial residual = 0.0017678, Final residual = 5.65342e-06, No Iterations 7
smoothSolver:  Solving for Uy, Initial residual = 0.00259149, Final residual = 8.48223e-06, No Iterations 7
DICPCG:  Solving for p, Initial residual = 0.00291156, Final residual = 0.000125503, No Iterations 114
time step continuity errors : sum local = 4.30499e-08, global = -1.95432e-20, cumulative = 4.6872e-19
DICPCG:  Solving for p, Initial residual = 0.00227425, Final residual = 8.98002e-07, No Iterations 145
time step continuity errors : sum local = 3.07902e-10, global = 2.24358e-19, cumulative = 6.93077e-19
ExecutionTime = 3.03 s  ClockTime = 3 s

Time = 0.083

Courant Number mean: 0.153839 max: 0.957274
smoothSolver:  Solving for Ux, Initial residual = 0.00173832, Final residual = 5.56197e-06, No Iterations 7
smoothSolver:  Solving for Uy, Initial residual = 0.0025599, Final residual = 8.38305e-06, No Iterations 7
DICPCG:  Solving for p, Initial residual = 0.00279088, Final residual = 0.000120911, No Iterations 55
time step continuity errors : sum local = 4.29701e-08, global = -8.29685e-20, cumulative = 6.10109e-19
DICPCG:  Solving for p, Initial residual = 0.00219243, Final residual = 9.12069e-07, No Iterations 144
time step continuity errors : sum local = 3.12766e-10, global = -1.03077e-19, cumulative = 5.07032e-19
ExecutionTime = 3.07 s  ClockTime = 3 s

Time = 0.084

Courant Number mean: 0.154384 max: 0.957455
smoothSolver:  Solving for Ux, Initial residual = 0.00171227, Final residual = 5.48046e-06, No Iterations 7
smoothSolver:  Solving for Uy, Initial residual = 0.00252727, Final residual = 8.2761e-06, No Iterations 7
DICPCG:  Solving for p, Initial residual = 0.00279648, Final residual = 0.000121528, No Iterations 55
time step continuity errors : sum local = 4.341e-08, global = 1.97652e-20, cumulative = 5.26798e-19
DICPCG:  Solving for p, Initial residual = 0.00222896, Final residual = 9.10122e-07, No Iterations 144
time step continuity errors : sum local = 3.12406e-10, global = -2.22936e-20, cumulative = 5.04504e-19
ExecutionTime = 3.1 s  ClockTime = 3 s

Time = 0.085

Courant Number mean: 0.154924 max: 0.957632
smoothSolver:  Solving for Ux, Initial residual = 0.00168979, Final residual = 5.4118e-06, No Iterations 7
smoothSolver:  Solving for Uy, Initial residual = 0.0024912, Final residual = 8.15642e-06, No Iterations 7
DICPCG:  Solving for p, Initial residual = 0.00274825, Final residual = 0.000128057, No Iterations 55
time step continuity errors : sum local = 4.83458e-08, global = -6.92868e-21, cumulative = 4.97575e-19
DICPCG:  Solving for p, Initial residual = 0.00220023, Final residual = 9.03478e-07, No Iterations 144
time step continuity errors : sum local = 3.10074e-10, global = 5.13001e-20, cumulative = 5.48875e-19
ExecutionTime = 3.13 s  ClockTime = 3 s

Time = 0.086

Courant Number mean: 0.155458 max: 0.957805
smoothSolver:  Solving for Ux, Initial residual = 0.00166451, Final residual = 5.33116e-06, No Iterations 7
smoothSolver:  Solving for Uy, Initial residual = 0.00246351, Final residual = 8.06556e-06, No Iterations 7
DICPCG:  Solving for p, Initial residual = 0.00277181, Final residual = 0.00012879, No Iterations 56
time step continuity errors : sum local = 5.12089e-08, global = -5.16311e-20, cumulative = 4.97244e-19
DICPCG:  Solving for p, Initial residual = 0.00219036, Final residual = 9.24696e-07, No Iterations 143
time step continuity errors : sum local = 3.17518e-10, global = -1.43017e-19, cumulative = 3.54227e-19
ExecutionTime = 3.17 s  ClockTime = 3 s

Time = 0.087

Courant Number mean: 0.155986 max: 0.957974
smoothSolver:  Solving for Ux, Initial residual = 0.00164815, Final residual = 5.28261e-06, No Iterations 7
smoothSolver:  Solving for Uy, Initial residual = 0.0024225, Final residual = 7.92732e-06, No Iterations 7
DICPCG:  Solving for p, Initial residual = 0.00275007, Final residual = 0.000118723, No Iterations 114
time step continuity errors : sum local = 4.0782e-08, global = 6.00821e-20, cumulative = 4.1431e-19
DICPCG:  Solving for p, Initial residual = 0.00215058, Final residual = 9.71794e-07, No Iterations 143
time step continuity errors : sum local = 3.33757e-10, global = 4.97323e-20, cumulative = 4.64042e-19
ExecutionTime = 3.21 s  ClockTime = 3 s

Time = 0.088

Courant Number mean: 0.156508 max: 0.95814
smoothSolver:  Solving for Ux, Initial residual = 0.00162184, Final residual = 5.20055e-06, No Iterations 7
smoothSolver:  Solving for Uy, Initial residual = 0.00239448, Final residual = 7.83963e-06, No Iterations 7
DICPCG:  Solving for p, Initial residual = 0.00263754, Final residual = 0.000110389, No Iterations 55
time step continuity errors : sum local = 3.93182e-08, global = 6.98957e-20, cumulative = 5.33938e-19
DICPCG:  Solving for p, Initial residual = 0.00207271, Final residual = 9.17334e-07, No Iterations 143
time step continuity errors : sum local = 3.14909e-10, global = -4.03502e-20, cumulative = 4.93587e-19
ExecutionTime = 3.24 s  ClockTime = 3 s

Time = 0.089

Courant Number mean: 0.157025 max: 0.958303
smoothSolver:  Solving for Ux, Initial residual = 0.00159878, Final residual = 5.12795e-06, No Iterations 7
smoothSolver:  Solving for Uy, Initial residual = 0.00236541, Final residual = 7.74451e-06, No Iterations 7
DICPCG:  Solving for p, Initial residual = 0.00264167, Final residual = 0.000111638, No Iterations 55
time step continuity errors : sum local = 3.9948e-08, global = -4.67308e-20, cumulative = 4.46857e-19
DICPCG:  Solving for p, Initial residual = 0.00210533, Final residual = 9.10398e-07, No Iterations 143
time step continuity errors : sum local = 3.12929e-10, global = -3.68992e-20, cumulative = 4.09957e-19
ExecutionTime = 3.27 s  ClockTime = 3 s

Time = 0.09

Courant Number mean: 0.157536 max: 0.958462
smoothSolver:  Solving for Ux, Initial residual = 0.00157896, Final residual = 5.06722e-06, No Iterations 7
smoothSolver:  Solving for Uy, Initial residual = 0.00233305, Final residual = 7.63742e-06, No Iterations 7
DICPCG:  Solving for p, Initial residual = 0.00259886, Final residual = 0.000118399, No Iterations 55
time step continuity errors : sum local = 4.47861e-08, global = -8.18909e-20, cumulative = 3.28066e-19
DICPCG:  Solving for p, Initial residual = 0.0020801, Final residual = 8.80337e-07, No Iterations 143
time step continuity errors : sum local = 3.02418e-10, global = 2.9036e-20, cumulative = 3.57102e-19
ExecutionTime = 3.31 s  ClockTime = 3 s

Time = 0.091

Courant Number mean: 0.158041 max: 0.958618
smoothSolver:  Solving for Ux, Initial residual = 0.00155656, Final residual = 4.99552e-06, No Iterations 7
smoothSolver:  Solving for Uy, Initial residual = 0.00230832, Final residual = 7.55648e-06, No Iterations 7
DICPCG:  Solving for p, Initial residual = 0.00262185, Final residual = 0.000119118, No Iterations 56
time step continuity errors : sum local = 4.74517e-08, global = -1.15813e-19, cumulative = 2.4129e-19
DICPCG:  Solving for p, Initial residual = 0.00207199, Final residual = 9.89851e-07, No Iterations 142
time step continuity errors : sum local = 3.40306e-10, global = 1.14043e-19, cumulative = 3.55333e-19
ExecutionTime = 3.34 s  ClockTime = 3 s

Time = 0.092

Courant Number mean: 0.158541 max: 0.958771
smoothSolver:  Solving for Ux, Initial residual = 0.00154228, Final residual = 4.95313e-06, No Iterations 7
smoothSolver:  Solving for Uy, Initial residual = 0.00227134, Final residual = 7.43193e-06, No Iterations 7
DICPCG:  Solving for p, Initial residual = 0.00260184, Final residual = 0.000129646, No Iterations 113
time step continuity errors : sum local = 4.45914e-08, global = -1.97978e-20, cumulative = 3.35535e-19
DICPCG:  Solving for p, Initial residual = 0.00203871, Final residual = 9.80635e-07, No Iterations 142
time step continuity errors : sum local = 3.37351e-10, global = -5.52361e-20, cumulative = 2.80299e-19
ExecutionTime = 3.38 s  ClockTime = 3 s

Time = 0.093

Courant Number mean: 0.159034 max: 0.958921
smoothSolver:  Solving for Ux, Initial residual = 0.0015188, Final residual = 4.87991e-06, No Iterations 7
smoothSolver:  Solving for Uy, Initial residual = 0.00224641, Final residual = 7.35391e-06, No Iterations 7
DICPCG:  Solving for p, Initial residual = 0.00250664, Final residual = 0.000122402, No Iterations 54
time step continuity errors : sum local = 4.32887e-08, global = 1.06103e-19, cumulative = 3.86402e-19
DICPCG:  Solving for p, Initial residual = 0.00197433, Final residual = 9.24104e-07, No Iterations 142
time step continuity errors : sum local = 3.17692e-10, global = 9.86896e-20, cumulative = 4.85091e-19
ExecutionTime = 3.41 s  ClockTime = 3 s

Time = 0.094

Courant Number mean: 0.159522 max: 0.959068
smoothSolver:  Solving for Ux, Initial residual = 0.00149815, Final residual = 4.81468e-06, No Iterations 7
smoothSolver:  Solving for Uy, Initial residual = 0.00222043, Final residual = 7.26894e-06, No Iterations 7
DICPCG:  Solving for p, Initial residual = 0.00251839, Final residual = 0.000124785, No Iterations 54
time step continuity errors : sum local = 4.4381e-08, global = -6.38144e-21, cumulative = 4.7871e-19
DICPCG:  Solving for p, Initial residual = 0.00201712, Final residual = 9.13656e-07, No Iterations 142
time step continuity errors : sum local = 3.14473e-10, global = 5.77249e-22, cumulative = 4.79287e-19
ExecutionTime = 3.45 s  ClockTime = 3 s

Time = 0.095

Courant Number mean: 0.160005 max: 0.959213
smoothSolver:  Solving for Ux, Initial residual = 0.00148052, Final residual = 4.76033e-06, No Iterations 7
smoothSolver:  Solving for Uy, Initial residual = 0.00219136, Final residual = 7.17275e-06, No Iterations 7
DICPCG:  Solving for p, Initial residual = 0.00247832, Final residual = 0.00010887, No Iterations 55
time step continuity errors : sum local = 4.10309e-08, global = 9.14433e-20, cumulative = 5.70731e-19
DICPCG:  Solving for p, Initial residual = 0.00197266, Final residual = 9.93673e-07, No Iterations 141
time step continuity errors : sum local = 3.41763e-10, global = 4.46777e-20, cumulative = 6.15408e-19
ExecutionTime = 3.48 s  ClockTime = 3 s

Time = 0.096

Courant Number mean: 0.160482 max: 0.959354
smoothSolver:  Solving for Ux, Initial residual = 0.00146083, Final residual = 4.69713e-06, No Iterations 7
smoothSolver:  Solving for Uy, Initial residual = 0.00216849, Final residual = 7.09795e-06, No Iterations 7
DICPCG:  Solving for p, Initial residual = 0.00248242, Final residual = 0.000105892, No Iterations 56
time step continuity errors : sum local = 4.20499e-08, global = 1.73701e-19, cumulative = 7.89109e-19
DICPCG:  Solving for p, Initial residual = 0.00196188, Final residual = 9.55841e-07, No Iterations 141
time step continuity errors : sum local = 3.29212e-10, global = 8.54476e-20, cumulative = 8.74557e-19
ExecutionTime = 3.51 s  ClockTime = 3 s

Time = 0.097

Courant Number mean: 0.160954 max: 0.959493
smoothSolver:  Solving for Ux, Initial residual = 0.00144785, Final residual = 4.65832e-06, No Iterations 7
smoothSolver:  Solving for Uy, Initial residual = 0.00213552, Final residual = 6.98712e-06, No Iterations 7
DICPCG:  Solving for p, Initial residual = 0.00245776, Final residual = 0.000117876, No Iterations 113
time step continuity errors : sum local = 4.05912e-08, global = 2.91918e-20, cumulative = 9.03748e-19
DICPCG:  Solving for p, Initial residual = 0.00192481, Final residual = 9.70601e-07, No Iterations 141
time step continuity errors : sum local = 3.3435e-10, global = -8.50687e-20, cumulative = 8.1868e-19
ExecutionTime = 3.56 s  ClockTime = 3 s

Time = 0.098

Courant Number mean: 0.16142 max: 0.959629
smoothSolver:  Solving for Ux, Initial residual = 0.00142723, Final residual = 4.59387e-06, No Iterations 7
smoothSolver:  Solving for Uy, Initial residual = 0.00211275, Final residual = 6.91565e-06, No Iterations 7
DICPCG:  Solving for p, Initial residual = 0.00237247, Final residual = 0.000117552, No Iterations 52
time step continuity errors : sum local = 4.15972e-08, global = 3.87875e-20, cumulative = 8.57467e-19
DICPCG:  Solving for p, Initial residual = 0.00187869, Final residual = 9.07026e-07, No Iterations 141
time step continuity errors : sum local = 3.1234e-10, global = -3.15397e-20, cumulative = 8.25927e-19
ExecutionTime = 3.59 s  ClockTime = 3 s

Time = 0.099

Courant Number mean: 0.161882 max: 0.959763
smoothSolver:  Solving for Ux, Initial residual = 0.00140837, Final residual = 4.53412e-06, No Iterations 7
smoothSolver:  Solving for Uy, Initial residual = 0.00209008, Final residual = 6.84161e-06, No Iterations 7
DICPCG:  Solving for p, Initial residual = 0.0023917, Final residual = 0.000117744, No Iterations 54
time step continuity errors : sum local = 4.21189e-08, global = 3.35321e-20, cumulative = 8.59459e-19
DICPCG:  Solving for p, Initial residual = 0.00188664, Final residual = 9.20888e-07, No Iterations 141
time step continuity errors : sum local = 3.17304e-10, global = -2.69091e-19, cumulative = 5.90369e-19
ExecutionTime = 3.62 s  ClockTime = 4 s

Time = 0.1

Courant Number mean: 0.162338 max: 0.959895
smoothSolver:  Solving for Ux, Initial residual = 0.00139318, Final residual = 4.48739e-06, No Iterations 7
smoothSolver:  Solving for Uy, Initial residual = 0.00206288, Final residual = 6.75139e-06, No Iterations 7
DICPCG:  Solving for p, Initial residual = 0.00236292, Final residual = 0.000103189, No Iterations 55
time step continuity errors : sum local = 3.92641e-08, global = 5.66205e-20, cumulative = 6.46989e-19
DICPCG:  Solving for p, Initial residual = 0.00188161, Final residual = 9.88883e-07, No Iterations 140
time step continuity errors : sum local = 3.40603e-10, global = -2.64388e-20, cumulative = 6.20551e-19
ExecutionTime = 3.66 s  ClockTime = 4 s

Time = 0.101

Courant Number mean: 0.162792 max: 0.960024
smoothSolver:  Solving for Ux, Initial residual = 0.00137535, Final residual = 4.42985e-06, No Iterations 7
smoothSolver:  Solving for Uy, Initial residual = 0.00204279, Final residual = 6.68561e-06, No Iterations 7
DICPCG:  Solving for p, Initial residual = 0.00236252, Final residual = 0.000105398, No Iterations 56
time step continuity errors : sum local = 4.22056e-08, global = -1.41241e-19, cumulative = 4.7931e-19
DICPCG:  Solving for p, Initial residual = 0.00186957, Final residual = 9.52434e-07, No Iterations 140
time step continuity errors : sum local = 3.28222e-10, global = 5.9075e-20, cumulative = 5.38385e-19
ExecutionTime = 3.69 s  ClockTime = 4 s

Time = 0.102

Courant Number mean: 0.163241 max: 0.960152
smoothSolver:  Solving for Ux, Initial residual = 0.00136449, Final residual = 9.97576e-06, No Iterations 6
smoothSolver:  Solving for Uy, Initial residual = 0.00201199, Final residual = 6.58203e-06, No Iterations 7
DICPCG:  Solving for p, Initial residual = 0.00235954, Final residual = 0.000116048, No Iterations 102
time step continuity errors : sum local = 3.9966e-08, global = 1.06497e-19, cumulative = 6.44882e-19
DICPCG:  Solving for p, Initial residual = 0.00186111, Final residual = 9.74148e-07, No Iterations 140
time step continuity errors : sum local = 3.36128e-10, global = -2.31489e-19, cumulative = 4.13393e-19
ExecutionTime = 3.73 s  ClockTime = 4 s

Time = 0.103

Courant Number mean: 0.163686 max: 0.960277
smoothSolver:  Solving for Ux, Initial residual = 0.00134619, Final residual = 9.84595e-06, No Iterations 6
smoothSolver:  Solving for Uy, Initial residual = 0.00199293, Final residual = 6.52293e-06, No Iterations 7
DICPCG:  Solving for p, Initial residual = 0.00226662, Final residual = 9.97975e-05, No Iterations 55
time step continuity errors : sum local = 3.46708e-08, global = 2.38414e-19, cumulative = 6.51808e-19
DICPCG:  Solving for p, Initial residual = 0.00179386, Final residual = 9.35159e-07, No Iterations 140
time step continuity errors : sum local = 3.22424e-10, global = 1.12483e-19, cumulative = 7.64291e-19
ExecutionTime = 3.77 s  ClockTime = 4 s

Time = 0.104

Courant Number mean: 0.164126 max: 0.9604
smoothSolver:  Solving for Ux, Initial residual = 0.00132923, Final residual = 9.72391e-06, No Iterations 6
smoothSolver:  Solving for Uy, Initial residual = 0.00196933, Final residual = 6.44566e-06, No Iterations 7
DICPCG:  Solving for p, Initial residual = 0.00227356, Final residual = 9.18476e-05, No Iterations 55
time step continuity errors : sum local = 3.17128e-08, global = -1.72289e-19, cumulative = 5.92002e-19
DICPCG:  Solving for p, Initial residual = 0.00182141, Final residual = 9.84268e-07, No Iterations 139
time step continuity errors : sum local = 3.39657e-10, global = 5.71269e-20, cumulative = 6.49129e-19
ExecutionTime = 3.8 s  ClockTime = 4 s

Time = 0.105

Courant Number mean: 0.164562 max: 0.96052
smoothSolver:  Solving for Ux, Initial residual = 0.00131439, Final residual = 9.61815e-06, No Iterations 6
smoothSolver:  Solving for Uy, Initial residual = 0.00194683, Final residual = 6.37195e-06, No Iterations 7
DICPCG:  Solving for p, Initial residual = 0.00223306, Final residual = 0.000110548, No Iterations 54
time step continuity errors : sum local = 3.84445e-08, global = 2.25492e-19, cumulative = 8.74621e-19
DICPCG:  Solving for p, Initial residual = 0.0017943, Final residual = 9.6477e-07, No Iterations 139
time step continuity errors : sum local = 3.32944e-10, global = 1.47416e-19, cumulative = 1.02204e-18
ExecutionTime = 3.83 s  ClockTime = 4 s

Time = 0.106

Courant Number mean: 0.164994 max: 0.960638
smoothSolver:  Solving for Ux, Initial residual = 0.00129942, Final residual = 9.51093e-06, No Iterations 6
smoothSolver:  Solving for Uy, Initial residual = 0.00192532, Final residual = 6.30149e-06, No Iterations 7
DICPCG:  Solving for p, Initial residual = 0.00223414, Final residual = 0.000109964, No Iterations 54
time step continuity errors : sum local = 3.82791e-08, global = -1.89518e-19, cumulative = 8.32519e-19
DICPCG:  Solving for p, Initial residual = 0.0017987, Final residual = 8.29487e-07, No Iterations 103
time step continuity errors : sum local = 3.40655e-10, global = -1.3655e-19, cumulative = 6.95969e-19
ExecutionTime = 3.86 s  ClockTime = 4 s

Time = 0.107

Courant Number mean: 0.165421 max: 0.960754
smoothSolver:  Solving for Ux, Initial residual = 0.0012853, Final residual = 9.41054e-06, No Iterations 6
smoothSolver:  Solving for Uy, Initial residual = 0.00190321, Final residual = 6.2289e-06, No Iterations 7
DICPCG:  Solving for p, Initial residual = 0.00220563, Final residual = 0.000109581, No Iterations 54
time step continuity errors : sum local = 3.89184e-08, global = 7.63909e-20, cumulative = 7.7236e-19
DICPCG:  Solving for p, Initial residual = 0.00177738, Final residual = 9.27527e-07, No Iterations 139
time step continuity errors : sum local = 3.20182e-10, global = -1.84941e-19, cumulative = 5.87419e-19
ExecutionTime = 3.89 s  ClockTime = 4 s

Time = 0.108

Courant Number mean: 0.165845 max: 0.960868
smoothSolver:  Solving for Ux, Initial residual = 0.0012707, Final residual = 9.30504e-06, No Iterations 6
smoothSolver:  Solving for Uy, Initial residual = 0.00188316, Final residual = 6.16338e-06, No Iterations 7
DICPCG:  Solving for p, Initial residual = 0.00219836, Final residual = 8.98827e-05, No Iterations 55
time step continuity errors : sum local = 3.28492e-08, global = 8.89736e-20, cumulative = 6.76393e-19
DICPCG:  Solving for p, Initial residual = 0.00174978, Final residual = 8.99904e-07, No Iterations 139
time step continuity errors : sum local = 3.10606e-10, global = 3.09967e-21, cumulative = 6.79493e-19
ExecutionTime = 3.93 s  ClockTime = 4 s

Time = 0.109

Courant Number mean: 0.166264 max: 0.96098
smoothSolver:  Solving for Ux, Initial residual = 0.0012583, Final residual = 9.21794e-06, No Iterations 6
smoothSolver:  Solving for Uy, Initial residual = 0.00186005, Final residual = 6.08682e-06, No Iterations 7
DICPCG:  Solving for p, Initial residual = 0.00216295, Final residual = 0.000101822, No Iterations 55
[...]
DICPCG:  Solving for p, Initial residual = 0.000138858, Final residual = 9.95823e-07, No Iterations 120
time step continuity errors : sum local = 3.5091e-10, global = -1.36407e-19, cumulative = 1.12612e-18
ExecutionTime = 15.54 s  ClockTime = 16 s

Time = 0.474

Courant Number mean: 0.221845 max: 0.968941
smoothSolver:  Solving for Ux, Initial residual = 0.000138068, Final residual = 5.27886e-06, No Iterations 4
smoothSolver:  Solving for Uy, Initial residual = 0.000171219, Final residual = 6.53276e-06, No Iterations 4
DICPCG:  Solving for p, Initial residual = 0.000175201, Final residual = 7.69218e-06, No Iterations 93
time step continuity errors : sum local = 2.71438e-09, global = 1.81176e-19, cumulative = 1.3073e-18
DICPCG:  Solving for p, Initial residual = 0.000135739, Final residual = 9.37119e-07, No Iterations 125
time step continuity errors : sum local = 3.30236e-10, global = -5.06317e-20, cumulative = 1.25667e-18
ExecutionTime = 15.58 s  ClockTime = 16 s

Time = 0.475

Courant Number mean: 0.221893 max: 0.968944
smoothSolver:  Solving for Ux, Initial residual = 0.000137198, Final residual = 5.24609e-06, No Iterations 4
smoothSolver:  Solving for Uy, Initial residual = 0.000170469, Final residual = 6.50462e-06, No Iterations 4
DICPCG:  Solving for p, Initial residual = 0.000174415, Final residual = 7.89747e-06, No Iterations 49
time step continuity errors : sum local = 3.10108e-09, global = 1.61054e-19, cumulative = 1.41772e-18
DICPCG:  Solving for p, Initial residual = 0.000136643, Final residual = 9.7937e-07, No Iterations 125
time step continuity errors : sum local = 3.45077e-10, global = 5.61835e-20, cumulative = 1.4739e-18
ExecutionTime = 15.61 s  ClockTime = 16 s

Time = 0.476

Courant Number mean: 0.22194 max: 0.968947
smoothSolver:  Solving for Ux, Initial residual = 0.000136451, Final residual = 5.21693e-06, No Iterations 4
smoothSolver:  Solving for Uy, Initial residual = 0.000169682, Final residual = 6.47366e-06, No Iterations 4
DICPCG:  Solving for p, Initial residual = 0.000179161, Final residual = 8.16548e-06, No Iterations 39
time step continuity errors : sum local = 3.09732e-09, global = -3.25641e-19, cumulative = 1.14826e-18
DICPCG:  Solving for p, Initial residual = 0.000136701, Final residual = 9.79384e-07, No Iterations 120
time step continuity errors : sum local = 3.45176e-10, global = 1.35243e-19, cumulative = 1.28351e-18
ExecutionTime = 15.64 s  ClockTime = 16 s

Time = 0.477

Courant Number mean: 0.221988 max: 0.96895
smoothSolver:  Solving for Ux, Initial residual = 0.000135939, Final residual = 5.19753e-06, No Iterations 4
smoothSolver:  Solving for Uy, Initial residual = 0.000168551, Final residual = 6.43093e-06, No Iterations 4
DICPCG:  Solving for p, Initial residual = 0.000172726, Final residual = 7.61838e-06, No Iterations 93
time step continuity errors : sum local = 2.68876e-09, global = 1.15443e-19, cumulative = 1.39895e-18
DICPCG:  Solving for p, Initial residual = 0.000133612, Final residual = 9.19938e-07, No Iterations 125
time step continuity errors : sum local = 3.24203e-10, global = 7.87137e-20, cumulative = 1.47766e-18
ExecutionTime = 15.67 s  ClockTime = 16 s

Time = 0.478

Courant Number mean: 0.222034 max: 0.968953
smoothSolver:  Solving for Ux, Initial residual = 0.000135083, Final residual = 5.16522e-06, No Iterations 4
smoothSolver:  Solving for Uy, Initial residual = 0.000167812, Final residual = 6.40325e-06, No Iterations 4
DICPCG:  Solving for p, Initial residual = 0.000171794, Final residual = 7.71544e-06, No Iterations 49
time step continuity errors : sum local = 3.03282e-09, global = -7.41567e-21, cumulative = 1.47025e-18
DICPCG:  Solving for p, Initial residual = 0.000134555, Final residual = 9.57479e-07, No Iterations 125
time step continuity errors : sum local = 3.3741e-10, global = -7.47174e-21, cumulative = 1.46278e-18
ExecutionTime = 15.7 s  ClockTime = 16 s

Time = 0.479

Courant Number mean: 0.222081 max: 0.968956
smoothSolver:  Solving for Ux, Initial residual = 0.000134346, Final residual = 5.13648e-06, No Iterations 4
smoothSolver:  Solving for Uy, Initial residual = 0.000167038, Final residual = 6.37276e-06, No Iterations 4
DICPCG:  Solving for p, Initial residual = 0.000175758, Final residual = 8.2841e-06, No Iterations 39
time step continuity errors : sum local = 3.13687e-09, global = -1.84865e-19, cumulative = 1.27791e-18
DICPCG:  Solving for p, Initial residual = 0.000134663, Final residual = 9.72131e-07, No Iterations 120
time step continuity errors : sum local = 3.42615e-10, global = -1.01481e-19, cumulative = 1.17643e-18
ExecutionTime = 15.73 s  ClockTime = 16 s

Time = 0.48

Courant Number mean: 0.222128 max: 0.968959
smoothSolver:  Solving for Ux, Initial residual = 0.000133843, Final residual = 5.11738e-06, No Iterations 4
smoothSolver:  Solving for Uy, Initial residual = 0.000165923, Final residual = 6.3307e-06, No Iterations 4
DICPCG:  Solving for p, Initial residual = 0.000170623, Final residual = 7.36249e-06, No Iterations 93
time step continuity errors : sum local = 2.59826e-09, global = -3.73285e-20, cumulative = 1.1391e-18
DICPCG:  Solving for p, Initial residual = 0.00013153, Final residual = 9.79613e-07, No Iterations 124
time step continuity errors : sum local = 3.45082e-10, global = -7.74955e-20, cumulative = 1.06161e-18
ExecutionTime = 15.77 s  ClockTime = 16 s

Time = 0.481

Courant Number mean: 0.222174 max: 0.968962
smoothSolver:  Solving for Ux, Initial residual = 0.000132998, Final residual = 5.08554e-06, No Iterations 4
smoothSolver:  Solving for Uy, Initial residual = 0.000165197, Final residual = 6.30351e-06, No Iterations 4
DICPCG:  Solving for p, Initial residual = 0.000169375, Final residual = 7.65975e-06, No Iterations 49
time step continuity errors : sum local = 3.00949e-09, global = 4.9023e-20, cumulative = 1.11063e-18
DICPCG:  Solving for p, Initial residual = 0.000132452, Final residual = 9.46726e-07, No Iterations 125
time step continuity errors : sum local = 3.3365e-10, global = 1.01098e-19, cumulative = 1.21173e-18
ExecutionTime = 15.8 s  ClockTime = 16 s

Time = 0.482

Courant Number mean: 0.22222 max: 0.968965
smoothSolver:  Solving for Ux, Initial residual = 0.000132274, Final residual = 5.05726e-06, No Iterations 4
smoothSolver:  Solving for Uy, Initial residual = 0.000164434, Final residual = 6.27347e-06, No Iterations 4
DICPCG:  Solving for p, Initial residual = 0.000173502, Final residual = 8.02816e-06, No Iterations 39
time step continuity errors : sum local = 3.0439e-09, global = 1.57225e-19, cumulative = 1.36895e-18
DICPCG:  Solving for p, Initial residual = 0.000132527, Final residual = 9.50549e-07, No Iterations 120
time step continuity errors : sum local = 3.35083e-10, global = -1.04671e-19, cumulative = 1.26428e-18
ExecutionTime = 15.83 s  ClockTime = 16 s

Time = 0.483

Courant Number mean: 0.222266 max: 0.968967
smoothSolver:  Solving for Ux, Initial residual = 0.000131778, Final residual = 5.03846e-06, No Iterations 4
smoothSolver:  Solving for Uy, Initial residual = 0.000163337, Final residual = 6.23207e-06, No Iterations 4
DICPCG:  Solving for p, Initial residual = 0.000167245, Final residual = 7.34861e-06, No Iterations 93
time step continuity errors : sum local = 2.59367e-09, global = 7.92451e-20, cumulative = 1.34353e-18
DICPCG:  Solving for p, Initial residual = 0.000129573, Final residual = 9.84686e-07, No Iterations 123
time step continuity errors : sum local = 3.4691e-10, global = 2.49e-19, cumulative = 1.59253e-18
ExecutionTime = 15.87 s  ClockTime = 16 s

Time = 0.484

Courant Number mean: 0.222311 max: 0.96897
smoothSolver:  Solving for Ux, Initial residual = 0.000130947, Final residual = 5.00712e-06, No Iterations 4
smoothSolver:  Solving for Uy, Initial residual = 0.000162623, Final residual = 6.20529e-06, No Iterations 4
DICPCG:  Solving for p, Initial residual = 0.000166467, Final residual = 7.65071e-06, No Iterations 49
time step continuity errors : sum local = 3.00228e-09, global = 3.04745e-20, cumulative = 1.623e-18
DICPCG:  Solving for p, Initial residual = 0.000130447, Final residual = 9.90671e-07, No Iterations 124
time step continuity errors : sum local = 3.49594e-10, global = 6.76873e-20, cumulative = 1.69069e-18
ExecutionTime = 15.89 s  ClockTime = 16 s

Time = 0.485

Courant Number mean: 0.222356 max: 0.968973
smoothSolver:  Solving for Ux, Initial residual = 0.000130233, Final residual = 4.97924e-06, No Iterations 4
smoothSolver:  Solving for Uy, Initial residual = 0.000161871, Final residual = 6.17572e-06, No Iterations 4
DICPCG:  Solving for p, Initial residual = 0.000170369, Final residual = 7.95428e-06, No Iterations 39
time step continuity errors : sum local = 3.01551e-09, global = 9.81967e-20, cumulative = 1.78888e-18
DICPCG:  Solving for p, Initial residual = 0.000130571, Final residual = 9.45514e-07, No Iterations 120
time step continuity errors : sum local = 3.33327e-10, global = -1.07227e-19, cumulative = 1.68166e-18
ExecutionTime = 15.92 s  ClockTime = 16 s

Time = 0.486

Courant Number mean: 0.222402 max: 0.968976
smoothSolver:  Solving for Ux, Initial residual = 0.000129745, Final residual = 4.96073e-06, No Iterations 4
smoothSolver:  Solving for Uy, Initial residual = 0.000160791, Final residual = 6.13493e-06, No Iterations 4
DICPCG:  Solving for p, Initial residual = 0.000164704, Final residual = 7.22795e-06, No Iterations 93
time step continuity errors : sum local = 2.55129e-09, global = -1.05137e-19, cumulative = 1.57652e-18
DICPCG:  Solving for p, Initial residual = 0.000127595, Final residual = 9.76205e-07, No Iterations 123
time step continuity errors : sum local = 3.43941e-10, global = 1.87329e-19, cumulative = 1.76385e-18
ExecutionTime = 15.96 s  ClockTime = 16 s

Time = 0.487

Courant Number mean: 0.222446 max: 0.968979
smoothSolver:  Solving for Ux, Initial residual = 0.000128927, Final residual = 4.92987e-06, No Iterations 4
smoothSolver:  Solving for Uy, Initial residual = 0.000160088, Final residual = 6.10859e-06, No Iterations 4
DICPCG:  Solving for p, Initial residual = 0.000164083, Final residual = 7.45224e-06, No Iterations 49
time step continuity errors : sum local = 2.92865e-09, global = -1.4532e-20, cumulative = 1.74932e-18
DICPCG:  Solving for p, Initial residual = 0.000128489, Final residual = 9.85106e-07, No Iterations 122
time step continuity errors : sum local = 3.47362e-10, global = 5.12235e-20, cumulative = 1.80054e-18
ExecutionTime = 15.99 s  ClockTime = 16 s

Time = 0.488

Courant Number mean: 0.222491 max: 0.968981
smoothSolver:  Solving for Ux, Initial residual = 0.000128223, Final residual = 4.90242e-06, No Iterations 4
smoothSolver:  Solving for Uy, Initial residual = 0.000159348, Final residual = 6.07947e-06, No Iterations 4
DICPCG:  Solving for p, Initial residual = 0.000167992, Final residual = 8.00372e-06, No Iterations 39
time step continuity errors : sum local = 3.03002e-09, global = -3.50569e-20, cumulative = 1.76548e-18
DICPCG:  Solving for p, Initial residual = 0.000128615, Final residual = 9.22081e-07, No Iterations 120
time step continuity errors : sum local = 3.25087e-10, global = -2.35324e-20, cumulative = 1.74195e-18
ExecutionTime = 16.02 s  ClockTime = 16 s

Time = 0.489

Courant Number mean: 0.222535 max: 0.968984
smoothSolver:  Solving for Ux, Initial residual = 0.000127743, Final residual = 4.88418e-06, No Iterations 4
smoothSolver:  Solving for Uy, Initial residual = 0.000158284, Final residual = 6.03932e-06, No Iterations 4
DICPCG:  Solving for p, Initial residual = 0.000162358, Final residual = 7.12085e-06, No Iterations 93
time step continuity errors : sum local = 2.51376e-09, global = -3.03602e-19, cumulative = 1.43835e-18
DICPCG:  Solving for p, Initial residual = 0.000125683, Final residual = 9.95396e-07, No Iterations 122
time step continuity errors : sum local = 3.5075e-10, global = 8.02169e-20, cumulative = 1.51857e-18
ExecutionTime = 16.05 s  ClockTime = 16 s

Time = 0.49

Courant Number mean: 0.22258 max: 0.968987
smoothSolver:  Solving for Ux, Initial residual = 0.000126937, Final residual = 4.85379e-06, No Iterations 4
smoothSolver:  Solving for Uy, Initial residual = 0.000157592, Final residual = 6.01338e-06, No Iterations 4
DICPCG:  Solving for p, Initial residual = 0.000161439, Final residual = 7.47563e-06, No Iterations 49
time step continuity errors : sum local = 2.93358e-09, global = 1.71739e-19, cumulative = 1.69031e-18
DICPCG:  Solving for p, Initial residual = 0.000126482, Final residual = 9.69992e-07, No Iterations 122
time step continuity errors : sum local = 3.42026e-10, global = 7.49925e-20, cumulative = 1.7653e-18
ExecutionTime = 16.08 s  ClockTime = 16 s

Time = 0.491

Courant Number mean: 0.222623 max: 0.968989
smoothSolver:  Solving for Ux, Initial residual = 0.000126244, Final residual = 4.82674e-06, No Iterations 4
smoothSolver:  Solving for Uy, Initial residual = 0.000156864, Final residual = 5.9847e-06, No Iterations 4
DICPCG:  Solving for p, Initial residual = 0.000165219, Final residual = 7.68943e-06, No Iterations 39
time step continuity errors : sum local = 2.91749e-09, global = 1.2247e-19, cumulative = 1.88777e-18
DICPCG:  Solving for p, Initial residual = 0.000126639, Final residual = 9.08451e-07, No Iterations 120
time step continuity errors : sum local = 3.20331e-10, global = 3.66423e-20, cumulative = 1.92441e-18
ExecutionTime = 16.11 s  ClockTime = 16 s

Time = 0.492

Courant Number mean: 0.222667 max: 0.968992
smoothSolver:  Solving for Ux, Initial residual = 0.000125771, Final residual = 4.80881e-06, No Iterations 4
smoothSolver:  Solving for Uy, Initial residual = 0.000155816, Final residual = 5.94514e-06, No Iterations 4
DICPCG:  Solving for p, Initial residual = 0.000159674, Final residual = 6.91485e-06, No Iterations 93
time step continuity errors : sum local = 2.44108e-09, global = 1.00805e-19, cumulative = 2.02522e-18
DICPCG:  Solving for p, Initial residual = 0.000123714, Final residual = 9.84839e-07, No Iterations 122
time step continuity errors : sum local = 3.47049e-10, global = -1.05432e-19, cumulative = 1.91978e-18
ExecutionTime = 16.14 s  ClockTime = 16 s

Time = 0.493

Courant Number mean: 0.222711 max: 0.968995
smoothSolver:  Solving for Ux, Initial residual = 0.000124978, Final residual = 4.77887e-06, No Iterations 4
smoothSolver:  Solving for Uy, Initial residual = 0.000155135, Final residual = 5.91963e-06, No Iterations 4
DICPCG:  Solving for p, Initial residual = 0.000158935, Final residual = 7.37664e-06, No Iterations 49
time step continuity errors : sum local = 2.89487e-09, global = 1.20621e-19, cumulative = 2.04041e-18
DICPCG:  Solving for p, Initial residual = 0.000124542, Final residual = 9.56789e-07, No Iterations 122
time step continuity errors : sum local = 3.37401e-10, global = 2.34184e-19, cumulative = 2.27459e-18
ExecutionTime = 16.17 s  ClockTime = 16 s

Time = 0.494

Courant Number mean: 0.222754 max: 0.968997
smoothSolver:  Solving for Ux, Initial residual = 0.000124295, Final residual = 4.75222e-06, No Iterations 4
smoothSolver:  Solving for Uy, Initial residual = 0.000154418, Final residual = 5.89139e-06, No Iterations 4
DICPCG:  Solving for p, Initial residual = 0.000162675, Final residual = 7.57637e-06, No Iterations 39
time step continuity errors : sum local = 2.87501e-09, global = -8.23635e-20, cumulative = 2.19223e-18
DICPCG:  Solving for p, Initial residual = 0.000124706, Final residual = 8.94e-07, No Iterations 120
time step continuity errors : sum local = 3.15273e-10, global = 1.10279e-19, cumulative = 2.3025e-18
ExecutionTime = 16.2 s  ClockTime = 16 s

Time = 0.495

Courant Number mean: 0.222797 max: 0.969
smoothSolver:  Solving for Ux, Initial residual = 0.00012383, Final residual = 4.73458e-06, No Iterations 4
smoothSolver:  Solving for Uy, Initial residual = 0.000153386, Final residual = 5.85243e-06, No Iterations 4
DICPCG:  Solving for p, Initial residual = 0.000157213, Final residual = 6.90956e-06, No Iterations 93
time step continuity errors : sum local = 2.43939e-09, global = -6.45197e-20, cumulative = 2.23799e-18
DICPCG:  Solving for p, Initial residual = 0.000121836, Final residual = 9.70578e-07, No Iterations 122
time step continuity errors : sum local = 3.42051e-10, global = 1.61457e-19, cumulative = 2.39944e-18
ExecutionTime = 16.23 s  ClockTime = 16 s

Time = 0.496

Courant Number mean: 0.22284 max: 0.969003
smoothSolver:  Solving for Ux, Initial residual = 0.000123048, Final residual = 4.70509e-06, No Iterations 4
smoothSolver:  Solving for Uy, Initial residual = 0.000152716, Final residual = 5.82733e-06, No Iterations 4
DICPCG:  Solving for p, Initial residual = 0.000156482, Final residual = 7.16895e-06, No Iterations 49
time step continuity errors : sum local = 2.8179e-09, global = -1.01104e-19, cumulative = 2.29834e-18
DICPCG:  Solving for p, Initial residual = 0.000122628, Final residual = 9.39762e-07, No Iterations 122
time step continuity errors : sum local = 3.31423e-10, global = -8.50253e-20, cumulative = 2.21331e-18
ExecutionTime = 16.26 s  ClockTime = 16 s

Time = 0.497

Courant Number mean: 0.222883 max: 0.969005
smoothSolver:  Solving for Ux, Initial residual = 0.000122375, Final residual = 4.67884e-06, No Iterations 4
smoothSolver:  Solving for Uy, Initial residual = 0.00015201, Final residual = 5.79952e-06, No Iterations 4
DICPCG:  Solving for p, Initial residual = 0.000160174, Final residual = 7.54798e-06, No Iterations 39
time step continuity errors : sum local = 2.86251e-09, global = -1.38172e-19, cumulative = 2.07514e-18
DICPCG:  Solving for p, Initial residual = 0.000122784, Final residual = 8.8309e-07, No Iterations 120
time step continuity errors : sum local = 3.11463e-10, global = 7.48441e-20, cumulative = 2.14999e-18
ExecutionTime = 16.29 s  ClockTime = 16 s

Time = 0.498

Courant Number mean: 0.222925 max: 0.969008
smoothSolver:  Solving for Ux, Initial residual = 0.000121918, Final residual = 4.66148e-06, No Iterations 4
smoothSolver:  Solving for Uy, Initial residual = 0.000150993, Final residual = 5.76115e-06, No Iterations 4
DICPCG:  Solving for p, Initial residual = 0.000154798, Final residual = 6.82961e-06, No Iterations 93
time step continuity errors : sum local = 2.41136e-09, global = 7.96239e-20, cumulative = 2.22961e-18
DICPCG:  Solving for p, Initial residual = 0.000119951, Final residual = 9.55803e-07, No Iterations 122
time step continuity errors : sum local = 3.36866e-10, global = 5.82002e-20, cumulative = 2.28781e-18
ExecutionTime = 16.32 s  ClockTime = 16 s

Time = 0.499

Courant Number mean: 0.222967 max: 0.96901
smoothSolver:  Solving for Ux, Initial residual = 0.000121147, Final residual = 4.63242e-06, No Iterations 4
smoothSolver:  Solving for Uy, Initial residual = 0.000150335, Final residual = 5.73645e-06, No Iterations 4
DICPCG:  Solving for p, Initial residual = 0.000154094, Final residual = 7.11356e-06, No Iterations 49
time step continuity errors : sum local = 2.79472e-09, global = 1.35031e-20, cumulative = 2.30131e-18
DICPCG:  Solving for p, Initial residual = 0.000120754, Final residual = 9.21973e-07, No Iterations 122
time step continuity errors : sum local = 3.2518e-10, global = 1.39844e-20, cumulative = 2.3153e-18
ExecutionTime = 16.35 s  ClockTime = 17 s

Time = 0.5

Courant Number mean: 0.223009 max: 0.969013
smoothSolver:  Solving for Ux, Initial residual = 0.000120485, Final residual = 4.60656e-06, No Iterations 4
smoothSolver:  Solving for Uy, Initial residual = 0.00014964, Final residual = 5.70907e-06, No Iterations 4
DICPCG:  Solving for p, Initial residual = 0.000157847, Final residual = 7.5104e-06, No Iterations 39
time step continuity errors : sum local = 2.84676e-09, global = -4.75829e-20, cumulative = 2.26771e-18
DICPCG:  Solving for p, Initial residual = 0.000120912, Final residual = 8.66377e-07, No Iterations 120
time step continuity errors : sum local = 3.05605e-10, global = 6.00845e-20, cumulative = 2.3278e-18
ExecutionTime = 16.39 s  ClockTime = 17 s

End

